/*---------------------------------------------------------------------------*\
| =========                 |                                                 |
| \\      /  F ield         | OpenFOAM: The Open Source CFD Toolbox           |
|  \\    /   O peration     | Version:  2406                                  |
|   \\  /    A nd           | Website:  www.openfoam.com                      |
|    \\/     M anipulation  |                                                 |
\*---------------------------------------------------------------------------*/
Build  : d6df40a5e2-20240822 OPENFOAM=2406 version=v2406
Arch   : "LSB;label=32;scalar=64"
Exec   : interFoam -parallel -case OpenFOAMCase
Date   : Nov 14 2024
Time   : 00:02:06
Host   : nicolette-OptiPlex-9020
PID    : 570579
I/O    : uncollated
Case   : /home/nicolette/Desktop/WorkingFiles/CantileverBeam/preliminaryGroundMotion/RunCase/OpenFOAMCase
nProcs : 2
Hosts  :
(
    (nicolette-OptiPlex-9020 2)
)
Pstream initialized with:
    floatTransfer      : false
    maxCommsSize       : 0
    nProcsSimpleSum    : 0
    nonBlockingExchange: 0 (tuning: 0)
    exchange algorithm : 0
    commsType          : nonBlocking
    polling iterations : 0
trapFpe: Floating point exception trapping enabled (FOAM_SIGFPE).
fileModificationChecking : Monitoring run-time modified files using timeStampMaster (fileModificationSkew 5, maxFileModificationPolls 20)
allowSystemOperations : Allowing user-supplied system call operations

// * * * * * * * * * * * * * * * * * * * * * * * * * * * * * * * * * * * * * //
Create time

Overriding DebugSwitches according to controlDict
    level (unregistered)
    lduMatrix       2;

    libs (unregistered)
Overriding OptimisationSwitches according to controlDict
    fileHandler (unregistered)
    maxThreadFileBufferSize 5e+09;

    maxMasterFileBufferSize 5e+09;

Create mesh for time = 0

Selecting dynamicFvMesh dynamicMotionSolverFvMesh
Selecting motion solver: displacementLaplacian
Applying motion to entire mesh
Selecting motion diffusion: quadratic
Selecting motion diffusion: inverseDistance
--> FOAM Warning : 
    From Foam::labelHashSet Foam::polyBoundaryMesh::patchSet(const Foam::UList<Foam::wordRe>&, bool, bool) const
    in file meshes/polyMesh/polyBoundaryMesh/polyBoundaryMesh.C at line 1098
    Cannot find any patch or group names matching paddle
--> FOAM Warning : 
    From Foam::labelHashSet Foam::polyBoundaryMesh::patchSet(const Foam::UList<Foam::wordRe>&, bool, bool) const
    in file meshes/polyMesh/polyBoundaryMesh/polyBoundaryMesh.C at line 1098
    Cannot find any patch or group names matching flumeFloor
Selecting patchDistMethod meshWave

PIMPLE: no residual control data found. Calculations will employ 5 corrector loops

Reading field p_rgh

Reading field U

Reading/calculating face flux field phi

Reading transportProperties

Selecting incompressible transport model Newtonian
Selecting incompressible transport model Newtonian
Selecting turbulence model type laminar
Selecting laminar stress model Stokes

Reading g

Reading hRef
Calculating field g.h

No MRF models present

Creating finite volume options from "constant/fvOptions"

Selecting finite volume options type buoyancyForce
    Source: buoyancy1
   Normalisation factor = 1e-20
DICPCG:  Solving for pcorr, Initial residual = 0, Final residual = 0, No Iterations 0
   Normalisation factor = 1e-20
DICPCG:  Solving for pcorr, Initial residual = 0, Final residual = 0, No Iterations 0
   Normalisation factor = 1e-20
DICPCG:  Solving for pcorr, Initial residual = 0, Final residual = 0, No Iterations 0
   Normalisation factor = 1e-20
DICPCG:  Solving for pcorr, Initial residual = 0, Final residual = 0, No Iterations 0
time step continuity errors : sum local = 0, global = 0, cumulative = 0
Constructing face velocity Uf

Courant Number mean: 0 max: 0

Starting time loop

---[preciceAdapter] Loaded the OpenFOAM-preCICE adapter - v1.3.1.
---[preciceAdapter] Reading preciceDict...
(0) 00:02:06 [impl::ParticipantImpl]:177 in configure: [0mThis is preCICE version 3.1.2
(0) 00:02:06 [impl::ParticipantImpl]:178 in configure: [0mRevision info: v3.1.2-126-g70a2362a
(0) 00:02:06 [impl::ParticipantImpl]:179 in configure: [0mBuild type: Release (without debug log)
(0) 00:02:06 [impl::ParticipantImpl]:197 in configure: [0mConfiguring preCICE with configuration "./precice-config.xml"
(0) 00:02:06 [impl::ParticipantImpl]:198 in configure: [0mI am participant "OpenFOAMCase"
(0) 00:02:06 [com::Communication]:28 in connectIntraComm: [0mConnecting Primary rank to 1 Secondary ranks
(0) 00:02:06 [impl::ParticipantImpl]:316 in setupCommunication: [0mSetting up primary communication to coupling partner/s
(0) 00:02:29 [impl::ParticipantImpl]:330 in setupCommunication: [0mPrimary ranks are connected
(0) 00:02:29 [impl::ParticipantImpl]:334 in setupCommunication: [0mSetting up preliminary secondary communication to coupling partner/s
(0) 00:02:29 [partition::ReceivedPartition]:68 in communicate: [0mReceive global mesh Coupling-Data-Projection-Mesh
(0) 00:02:29 [partition::ProvidedPartition]:120 in prepare: [0mPrepare partition for mesh OpenFOAM-Mesh
(0) 00:02:29 [partition::ReceivedPartition]:350 in filterByBoundingBox: [0mBroadcast mesh Coupling-Data-Projection-Mesh
(0) 00:02:29 [partition::ReceivedPartition]:362 in filterByBoundingBox: [0mFilter mesh Coupling-Data-Projection-Mesh by bounding box on secondary ranks
(0) 00:02:29 [mapping::NearestNeighborMapping]:78 in computeMapping: [0mMapping distance not available due to empty partition.
(0) 00:02:29 [mapping::NearestNeighborMapping]:78 in computeMapping: [0mMapping distance not available due to empty partition.
(0) 00:02:29 [partition::ReceivedPartition]:162 in compute: [0mFilter mesh Coupling-Data-Projection-Mesh by mappings
(0) 00:02:29 [partition::ReceivedPartition]:203 in compute: [0mFeedback distribution for mesh Coupling-Data-Projection-Mesh
(0) 00:02:29 [impl::ParticipantImpl]:342 in setupCommunication: [0mSetting up secondary communication to coupling partner/s
(0) 00:02:29 [impl::ParticipantImpl]:348 in setupCommunication: [0mSecondary ranks are connected
(0) 00:02:29 [impl::ParticipantImpl]:1444 in computeMappings: [0mComputing "nearest-neighbor" mapping from mesh "OpenFOAM-Mesh" to mesh "Coupling-Data-Projection-Mesh" in "write" direction.
(0) 00:02:29 [mapping::NearestNeighborMapping]:78 in computeMapping: [0mMapping distance not available due to empty partition.
(0) 00:02:29 [impl::DataContext]:135 in mapData: [0mMapping "Force" for t=0 from "OpenFOAM-Mesh" to "Coupling-Data-Projection-Mesh" (skipped zero sample)
(0) 00:02:29 [impl::ParticipantImpl]:1444 in computeMappings: [0mComputing "nearest-neighbor" mapping from mesh "Coupling-Data-Projection-Mesh" to mesh "OpenFOAM-Mesh" in "read" direction.
(0) 00:02:29 [mapping::NearestNeighborMapping]:78 in computeMapping: [0mMapping distance not available due to empty partition.
(0) 00:02:29 [impl::DataContext]:135 in mapData: [0mMapping "Displacement" for t=0 from "Coupling-Data-Projection-Mesh" to "OpenFOAM-Mesh" (skipped zero sample)
(0) 00:02:29 [impl::ParticipantImpl]:281 in initialize: [0miteration: 1 of 100 (min 1), time-window: 1, time: 0 of 1, time-window-size: 0.0001, max-time-step-size: 0.0001, ongoing: yes, time-window-complete: no, write-iteration-checkpoint 
---[preciceAdapter] preCICE was configured and initialized
---[preciceAdapter] Setting the solver's endTime to infinity to prevent early exits. Only preCICE will control the simulation's endTime. Any functionObject's end() method will be triggered by the adapter. You may disable this behavior in the adapter's configuration.
Courant Number mean: 0 max: 0
Interface Courant Number mean: 0 max: 0
Time = 0.0001

PIMPLE: iteration 1
--> FOAM Warning : 
    From Foam::labelHashSet Foam::polyBoundaryMesh::patchSet(const Foam::UList<Foam::wordRe>&, bool, bool) const
    in file meshes/polyMesh/polyBoundaryMesh/polyBoundaryMesh.C at line 1098
    Cannot find any patch or group names matching paddle
--> FOAM Warning : 
    From Foam::labelHashSet Foam::polyBoundaryMesh::patchSet(const Foam::UList<Foam::wordRe>&, bool, bool) const
    in file meshes/polyMesh/polyBoundaryMesh/polyBoundaryMesh.C at line 1098
    Cannot find any patch or group names matching flumeFloor
--> FOAM Warning : 
    From void Foam::lduMatrix::operator-=(const Foam::lduMatrix&)
    in file matrices/lduMatrix/lduMatrix/lduMatrixOperations.C at line 290
    Unknown matrix type combination
    this : symmetric    A    : empty
   Normalisation factor = 1e-20
DICPCG:  Solving for cellDisplacementx, Initial residual = 0, Final residual = 0, No Iterations 0
   Normalisation factor = 1e-20
DICPCG:  Solving for cellDisplacementy, Initial residual = 0, Final residual = 0, No Iterations 0
   Normalisation factor = 1e-20
DICPCG:  Solving for cellDisplacementz, Initial residual = 0, Final residual = 0, No Iterations 0
   Normalisation factor = 15.3309
smoothSolver:  Solving for alpha.water, Initial residual = 0, Final residual = 0, No Iterations 1
Phase-1 volume fraction = 0.203305  Min(alpha.water) = 0  Max(alpha.water) = 1
MULES: Correcting alpha.water
MULES: Correcting alpha.water
Phase-1 volume fraction = 0.203305  Min(alpha.water) = 0  Max(alpha.water) = 1
--> FOAM Warning : 
    From void Foam::lduMatrix::operator-=(const Foam::lduMatrix&)
    in file matrices/lduMatrix/lduMatrix/lduMatrixOperations.C at line 290
    Unknown matrix type combination
    this : asymmetric    A    : empty
   Normalisation factor = 0.1878
DICPCG:  Solving for p_rgh, Initial residual = 1, Final residual = 0.00370237, No Iterations 1
   Normalisation factor = 0.382702
DICPCG:  Solving for p_rgh, Initial residual = 0.00181683, Final residual = 1.72807e-05, No Iterations 86
   Normalisation factor = 0.483504
DICPCG:  Solving for p_rgh, Initial residual = 1.3678e-05, Final residual = 1.21797e-07, No Iterations 114
   Normalisation factor = 0.483547
DICPCG:  Solving for p_rgh, Initial residual = 1.21786e-07, Final residual = 1.19473e-09, No Iterations 63
time step continuity errors : sum local = 2.72247e-11, global = -6.65297e-12, cumulative = -6.65297e-12
   Normalisation factor = 0.483547
DICPCG:  Solving for p_rgh, Initial residual = 4.92485e-08, Final residual = 8.78741e-10, No Iterations 121
   Normalisation factor = 0.483547
DICPCG:  Solving for p_rgh, Initial residual = 8.78742e-10, Final residual = 8.78742e-10, No Iterations 0
   Normalisation factor = 0.483547
DICPCG:  Solving for p_rgh, Initial residual = 8.78742e-10, Final residual = 8.78742e-10, No Iterations 0
   Normalisation factor = 0.483547
DICPCG:  Solving for p_rgh, Initial residual = 8.78742e-10, Final residual = 8.78742e-10, No Iterations 0
time step continuity errors : sum local = 2.00242e-11, global = 4.13897e-13, cumulative = -6.23908e-12
   Normalisation factor = 0.483547
DICPCG:  Solving for p_rgh, Initial residual = 8.80254e-10, Final residual = 8.80254e-10, No Iterations 0
   Normalisation factor = 0.483547
DICPCG:  Solving for p_rgh, Initial residual = 8.80254e-10, Final residual = 8.80254e-10, No Iterations 0
   Normalisation factor = 0.483547
DICPCG:  Solving for p_rgh, Initial residual = 8.80254e-10, Final residual = 8.80254e-10, No Iterations 0
   Normalisation factor = 0.483547
DICPCG:  Solving for p_rgh, Initial residual = 8.80254e-10, Final residual = 8.80254e-10, No Iterations 0
time step continuity errors : sum local = 2.00586e-11, global = 4.26824e-13, cumulative = -5.81225e-12
PIMPLE: iteration 2
--> FOAM Warning : 
    From Foam::labelHashSet Foam::polyBoundaryMesh::patchSet(const Foam::UList<Foam::wordRe>&, bool, bool) const
    in file meshes/polyMesh/polyBoundaryMesh/polyBoundaryMesh.C at line 1098
    Cannot find any patch or group names matching paddle
--> FOAM Warning : 
    From Foam::labelHashSet Foam::polyBoundaryMesh::patchSet(const Foam::UList<Foam::wordRe>&, bool, bool) const
    in file meshes/polyMesh/polyBoundaryMesh/polyBoundaryMesh.C at line 1098
    Cannot find any patch or group names matching flumeFloor
--> FOAM Warning : 
    From void Foam::lduMatrix::operator-=(const Foam::lduMatrix&)
    in file matrices/lduMatrix/lduMatrix/lduMatrixOperations.C at line 290
    Unknown matrix type combination
    this : symmetric    A    : empty
   Normalisation factor = 1e-20
DICPCG:  Solving for cellDisplacementx, Initial residual = 0, Final residual = 0, No Iterations 0
   Normalisation factor = 1e-20
DICPCG:  Solving for cellDisplacementy, Initial residual = 0, Final residual = 0, No Iterations 0
   Normalisation factor = 1e-20
DICPCG:  Solving for cellDisplacementz, Initial residual = 0, Final residual = 0, No Iterations 0
   Normalisation factor = 15.3309
smoothSolver:  Solving for alpha.water, Initial residual = 8.71065e-07, Final residual = 9.57946e-15, No Iterations 1
Phase-1 volume fraction = 0.203305  Min(alpha.water) = 0  Max(alpha.water) = 1
MULES: Correcting alpha.water
MULES: Correcting alpha.water
Phase-1 volume fraction = 0.203305  Min(alpha.water) = -1.20063e-71  Max(alpha.water) = 1
--> FOAM Warning : 
    From void Foam::lduMatrix::operator-=(const Foam::lduMatrix&)
    in file matrices/lduMatrix/lduMatrix/lduMatrixOperations.C at line 290
    Unknown matrix type combination
    this : asymmetric    A    : empty
   Normalisation factor = 0.470956
DICPCG:  Solving for p_rgh, Initial residual = 9.17156e-05, Final residual = 8.79655e-07, No Iterations 6
   Normalisation factor = 0.470942
DICPCG:  Solving for p_rgh, Initial residual = 8.79681e-07, Final residual = 8.50757e-09, No Iterations 102
   Normalisation factor = 0.470939
DICPCG:  Solving for p_rgh, Initial residual = 8.50762e-09, Final residual = 9.99348e-10, No Iterations 43
   Normalisation factor = 0.470939
DICPCG:  Solving for p_rgh, Initial residual = 9.99348e-10, Final residual = 9.99348e-10, No Iterations 0
time step continuity errors : sum local = 2.21787e-11, global = 1.41044e-12, cumulative = -4.40181e-12
   Normalisation factor = 0.470939
DICPCG:  Solving for p_rgh, Initial residual = 1.39395e-08, Final residual = 9.95762e-10, No Iterations 9
   Normalisation factor = 0.470939
DICPCG:  Solving for p_rgh, Initial residual = 9.95762e-10, Final residual = 9.95762e-10, No Iterations 0
   Normalisation factor = 0.470939
DICPCG:  Solving for p_rgh, Initial residual = 9.95762e-10, Final residual = 9.95762e-10, No Iterations 0
   Normalisation factor = 0.470939
DICPCG:  Solving for p_rgh, Initial residual = 9.95762e-10, Final residual = 9.95762e-10, No Iterations 0
time step continuity errors : sum local = 2.20991e-11, global = -1.77637e-13, cumulative = -4.57944e-12
   Normalisation factor = 0.470939
DICPCG:  Solving for p_rgh, Initial residual = 9.98041e-10, Final residual = 9.98041e-10, No Iterations 0
   Normalisation factor = 0.470939
DICPCG:  Solving for p_rgh, Initial residual = 9.98041e-10, Final residual = 9.98041e-10, No Iterations 0
   Normalisation factor = 0.470939
DICPCG:  Solving for p_rgh, Initial residual = 9.98041e-10, Final residual = 9.98041e-10, No Iterations 0
   Normalisation factor = 0.470939
DICPCG:  Solving for p_rgh, Initial residual = 9.98041e-10, Final residual = 9.98041e-10, No Iterations 0
time step continuity errors : sum local = 2.21497e-11, global = -1.78745e-13, cumulative = -4.75819e-12
PIMPLE: iteration 3
--> FOAM Warning : 
    From Foam::labelHashSet Foam::polyBoundaryMesh::patchSet(const Foam::UList<Foam::wordRe>&, bool, bool) const
    in file meshes/polyMesh/polyBoundaryMesh/polyBoundaryMesh.C at line 1098
    Cannot find any patch or group names matching paddle
--> FOAM Warning : 
    From Foam::labelHashSet Foam::polyBoundaryMesh::patchSet(const Foam::UList<Foam::wordRe>&, bool, bool) const
    in file meshes/polyMesh/polyBoundaryMesh/polyBoundaryMesh.C at line 1098
    Cannot find any patch or group names matching flumeFloor
--> FOAM Warning : 
    From void Foam::lduMatrix::operator-=(const Foam::lduMatrix&)
    in file matrices/lduMatrix/lduMatrix/lduMatrixOperations.C at line 290
    Unknown matrix type combination
    this : symmetric    A    : empty
   Normalisation factor = 1e-20
DICPCG:  Solving for cellDisplacementx, Initial residual = 0, Final residual = 0, No Iterations 0
   Normalisation factor = 1e-20
DICPCG:  Solving for cellDisplacementy, Initial residual = 0, Final residual = 0, No Iterations 0
   Normalisation factor = 1e-20
DICPCG:  Solving for cellDisplacementz, Initial residual = 0, Final residual = 0, No Iterations 0
   Normalisation factor = 15.3309
smoothSolver:  Solving for alpha.water, Initial residual = 6.78033e-08, Final residual = 8.09733e-16, No Iterations 1
Phase-1 volume fraction = 0.203305  Min(alpha.water) = -2.62514e-151  Max(alpha.water) = 1
MULES: Correcting alpha.water
MULES: Correcting alpha.water
Phase-1 volume fraction = 0.203305  Min(alpha.water) = -5.36386e-80  Max(alpha.water) = 1
--> FOAM Warning : 
    From void Foam::lduMatrix::operator-=(const Foam::lduMatrix&)
    in file matrices/lduMatrix/lduMatrix/lduMatrixOperations.C at line 290
    Unknown matrix type combination
    this : asymmetric    A    : empty
   Normalisation factor = 0.471386
DICPCG:  Solving for p_rgh, Initial residual = 1.01944e-05, Final residual = 9.58243e-08, No Iterations 11
   Normalisation factor = 0.471387
DICPCG:  Solving for p_rgh, Initial residual = 9.5824e-08, Final residual = 8.71909e-10, No Iterations 120
   Normalisation factor = 0.471388
DICPCG:  Solving for p_rgh, Initial residual = 8.71908e-10, Final residual = 8.71908e-10, No Iterations 0
   Normalisation factor = 0.471388
DICPCG:  Solving for p_rgh, Initial residual = 8.71908e-10, Final residual = 8.71908e-10, No Iterations 0
time step continuity errors : sum local = 1.93688e-11, global = 5.24362e-13, cumulative = -4.23383e-12
   Normalisation factor = 0.471388
DICPCG:  Solving for p_rgh, Initial residual = 2.1687e-09, Final residual = 6.66533e-10, No Iterations 1
   Normalisation factor = 0.471388
DICPCG:  Solving for p_rgh, Initial residual = 6.66533e-10, Final residual = 6.66533e-10, No Iterations 0
   Normalisation factor = 0.471388
DICPCG:  Solving for p_rgh, Initial residual = 6.66533e-10, Final residual = 6.66533e-10, No Iterations 0
   Normalisation factor = 0.471388
DICPCG:  Solving for p_rgh, Initial residual = 6.66533e-10, Final residual = 6.66533e-10, No Iterations 0
time step continuity errors : sum local = 1.48066e-11, global = 5.04856e-13, cumulative = -3.72897e-12
   Normalisation factor = 0.471388
DICPCG:  Solving for p_rgh, Initial residual = 6.66948e-10, Final residual = 6.66948e-10, No Iterations 0
   Normalisation factor = 0.471388
DICPCG:  Solving for p_rgh, Initial residual = 6.66948e-10, Final residual = 6.66948e-10, No Iterations 0
   Normalisation factor = 0.471388
DICPCG:  Solving for p_rgh, Initial residual = 6.66948e-10, Final residual = 6.66948e-10, No Iterations 0
   Normalisation factor = 0.471388
DICPCG:  Solving for p_rgh, Initial residual = 6.66948e-10, Final residual = 6.66948e-10, No Iterations 0
time step continuity errors : sum local = 1.48158e-11, global = 5.0489e-13, cumulative = -3.22408e-12
PIMPLE: iteration 4
--> FOAM Warning : 
    From Foam::labelHashSet Foam::polyBoundaryMesh::patchSet(const Foam::UList<Foam::wordRe>&, bool, bool) const
    in file meshes/polyMesh/polyBoundaryMesh/polyBoundaryMesh.C at line 1098
    Cannot find any patch or group names matching paddle
--> FOAM Warning : 
    From Foam::labelHashSet Foam::polyBoundaryMesh::patchSet(const Foam::UList<Foam::wordRe>&, bool, bool) const
    in file meshes/polyMesh/polyBoundaryMesh/polyBoundaryMesh.C at line 1098
    Cannot find any patch or group names matching flumeFloor
--> FOAM Warning : 
    From void Foam::lduMatrix::operator-=(const Foam::lduMatrix&)
    in file matrices/lduMatrix/lduMatrix/lduMatrixOperations.C at line 290
    Unknown matrix type combination
    this : symmetric    A    : empty
   Normalisation factor = 1e-20
DICPCG:  Solving for cellDisplacementx, Initial residual = 0, Final residual = 0, No Iterations 0
   Normalisation factor = 1e-20
DICPCG:  Solving for cellDisplacementy, Initial residual = 0, Final residual = 0, No Iterations 0
   Normalisation factor = 1e-20
DICPCG:  Solving for cellDisplacementz, Initial residual = 0, Final residual = 0, No Iterations 0
   Normalisation factor = 15.3309
smoothSolver:  Solving for alpha.water, Initial residual = 6.20119e-09, Final residual = 1.00759e-16, No Iterations 1
Phase-1 volume fraction = 0.203305  Min(alpha.water) = -2.53353e-151  Max(alpha.water) = 1
MULES: Correcting alpha.water
MULES: Correcting alpha.water
Phase-1 volume fraction = 0.203305  Min(alpha.water) = -3.60341e-84  Max(alpha.water) = 1
--> FOAM Warning : 
    From void Foam::lduMatrix::operator-=(const Foam::lduMatrix&)
    in file matrices/lduMatrix/lduMatrix/lduMatrixOperations.C at line 290
    Unknown matrix type combination
    this : asymmetric    A    : empty
   Normalisation factor = 0.47135
DICPCG:  Solving for p_rgh, Initial residual = 8.01523e-07, Final residual = 6.29597e-09, No Iterations 6
   Normalisation factor = 0.47135
DICPCG:  Solving for p_rgh, Initial residual = 6.29597e-09, Final residual = 9.24576e-10, No Iterations 14
   Normalisation factor = 0.47135
DICPCG:  Solving for p_rgh, Initial residual = 9.24576e-10, Final residual = 9.24576e-10, No Iterations 0
   Normalisation factor = 0.47135
DICPCG:  Solving for p_rgh, Initial residual = 9.24576e-10, Final residual = 9.24576e-10, No Iterations 0
time step continuity errors : sum local = 2.05372e-11, global = 1.9093e-12, cumulative = -1.31478e-12
   Normalisation factor = 0.47135
DICPCG:  Solving for p_rgh, Initial residual = 1.00643e-09, Final residual = 6.13666e-10, No Iterations 1
   Normalisation factor = 0.47135
DICPCG:  Solving for p_rgh, Initial residual = 6.13666e-10, Final residual = 6.13666e-10, No Iterations 0
   Normalisation factor = 0.47135
DICPCG:  Solving for p_rgh, Initial residual = 6.13666e-10, Final residual = 6.13666e-10, No Iterations 0
   Normalisation factor = 0.47135
DICPCG:  Solving for p_rgh, Initial residual = 6.13666e-10, Final residual = 6.13666e-10, No Iterations 0
time step continuity errors : sum local = 1.36311e-11, global = 1.95316e-12, cumulative = 6.38378e-13
   Normalisation factor = 0.47135
DICPCG:  Solving for p_rgh, Initial residual = 6.13564e-10, Final residual = 6.13564e-10, No Iterations 0
   Normalisation factor = 0.47135
DICPCG:  Solving for p_rgh, Initial residual = 6.13564e-10, Final residual = 6.13564e-10, No Iterations 0
   Normalisation factor = 0.47135
DICPCG:  Solving for p_rgh, Initial residual = 6.13564e-10, Final residual = 6.13564e-10, No Iterations 0
   Normalisation factor = 0.47135
DICPCG:  Solving for p_rgh, Initial residual = 6.13564e-10, Final residual = 6.13564e-10, No Iterations 0
time step continuity errors : sum local = 1.36288e-11, global = 1.95318e-12, cumulative = 2.59155e-12
PIMPLE: iteration 5
--> FOAM Warning : 
    From Foam::labelHashSet Foam::polyBoundaryMesh::patchSet(const Foam::UList<Foam::wordRe>&, bool, bool) const
    in file meshes/polyMesh/polyBoundaryMesh/polyBoundaryMesh.C at line 1098
    Cannot find any patch or group names matching paddle
--> FOAM Warning : 
    From Foam::labelHashSet Foam::polyBoundaryMesh::patchSet(const Foam::UList<Foam::wordRe>&, bool, bool) const
    in file meshes/polyMesh/polyBoundaryMesh/polyBoundaryMesh.C at line 1098
    Cannot find any patch or group names matching flumeFloor
--> FOAM Warning : 
    From void Foam::lduMatrix::operator-=(const Foam::lduMatrix&)
    in file matrices/lduMatrix/lduMatrix/lduMatrixOperations.C at line 290
    Unknown matrix type combination
    this : symmetric    A    : empty
   Normalisation factor = 1e-20
DICPCG:  Solving for cellDisplacementx, Initial residual = 0, Final residual = 0, No Iterations 0
   Normalisation factor = 1e-20
DICPCG:  Solving for cellDisplacementy, Initial residual = 0, Final residual = 0, No Iterations 0
   Normalisation factor = 1e-20
DICPCG:  Solving for cellDisplacementz, Initial residual = 0, Final residual = 0, No Iterations 0
   Normalisation factor = 15.3309
smoothSolver:  Solving for alpha.water, Initial residual = 6.26456e-10, Final residual = 3.09492e-17, No Iterations 1
Phase-1 volume fraction = 0.203305  Min(alpha.water) = -2.57493e-151  Max(alpha.water) = 1
MULES: Correcting alpha.water
MULES: Correcting alpha.water
Phase-1 volume fraction = 0.203305  Min(alpha.water) = -2.80409e-71  Max(alpha.water) = 1
--> FOAM Warning : 
    From void Foam::lduMatrix::operator-=(const Foam::lduMatrix&)
    in file matrices/lduMatrix/lduMatrix/lduMatrixOperations.C at line 290
    Unknown matrix type combination
    this : asymmetric    A    : empty
   Normalisation factor = 0.471354
DICPCG:  Solving for p_rgh, Initial residual = 8.72988e-08, Final residual = 9.69492e-10, No Iterations 15
   Normalisation factor = 0.471354
DICPCG:  Solving for p_rgh, Initial residual = 9.69492e-10, Final residual = 9.69492e-10, No Iterations 0
   Normalisation factor = 0.471354
DICPCG:  Solving for p_rgh, Initial residual = 9.69492e-10, Final residual = 9.69492e-10, No Iterations 0
   Normalisation factor = 0.471354
DICPCG:  Solving for p_rgh, Initial residual = 9.69492e-10, Final residual = 9.69492e-10, No Iterations 0
time step continuity errors : sum local = 2.1535e-11, global = -2.45305e-12, cumulative = 1.38506e-13
   Normalisation factor = 0.471354
DICPCG:  Solving for p_rgh, Initial residual = 9.75098e-10, Final residual = 9.75098e-10, No Iterations 0
   Normalisation factor = 0.471354
DICPCG:  Solving for p_rgh, Initial residual = 9.75098e-10, Final residual = 9.75098e-10, No Iterations 0
   Normalisation factor = 0.471354
DICPCG:  Solving for p_rgh, Initial residual = 9.75098e-10, Final residual = 9.75098e-10, No Iterations 0
   Normalisation factor = 0.471354
DICPCG:  Solving for p_rgh, Initial residual = 9.75098e-10, Final residual = 9.75098e-10, No Iterations 0
time step continuity errors : sum local = 2.16596e-11, global = -2.45548e-12, cumulative = -2.31697e-12
   Normalisation factor = 0.471354
DICPCG:  Solving for p_rgh, Initial residual = 9.75102e-10, Final residual = 9.75102e-10, No Iterations 0
   Normalisation factor = 0.471354
DICPCG:  Solving for p_rgh, Initial residual = 9.75102e-10, Final residual = 9.75102e-10, No Iterations 0
   Normalisation factor = 0.471354
DICPCG:  Solving for p_rgh, Initial residual = 9.75102e-10, Final residual = 9.75102e-10, No Iterations 0
   Normalisation factor = 0.471354
DICPCG:  Solving for p_rgh, Initial residual = 9.75102e-10, Final residual = 9.75102e-10, No Iterations 0
time step continuity errors : sum local = 2.16597e-11, global = -2.45548e-12, cumulative = -4.77246e-12
ExecutionTime = 1.25 s  ClockTime = 24 s

(0) 00:02:30 [impl::DataContext]:135 in mapData: [0mMapping "Force" for t=0.0001 from "OpenFOAM-Mesh" to "Coupling-Data-Projection-Mesh"
(0) 00:02:30 [impl::DataContext]:135 in mapData: [0mMapping "Displacement" for t=0.0001 from "Coupling-Data-Projection-Mesh" to "OpenFOAM-Mesh"
(0) 00:02:30 [impl::ParticipantImpl]:422 in advance: [0miteration: 2 of 100 (min 1), time-window: 1, time: 0 of 1, time-window-size: 0.0001, max-time-step-size: 0.0001, ongoing: yes, time-window-complete: no, read-iteration-checkpoint 
Courant Number mean: 0 max: 0
Interface Courant Number mean: 0 max: 0
Time = 0.0001

PIMPLE: iteration 1
--> FOAM Warning : 
    From Foam::labelHashSet Foam::polyBoundaryMesh::patchSet(const Foam::UList<Foam::wordRe>&, bool, bool) const
    in file meshes/polyMesh/polyBoundaryMesh/polyBoundaryMesh.C at line 1098
    Cannot find any patch or group names matching paddle
--> FOAM Warning : 
    From Foam::labelHashSet Foam::polyBoundaryMesh::patchSet(const Foam::UList<Foam::wordRe>&, bool, bool) const
    in file meshes/polyMesh/polyBoundaryMesh/polyBoundaryMesh.C at line 1098
    Cannot find any patch or group names matching flumeFloor
--> FOAM Warning : 
    From void Foam::lduMatrix::operator-=(const Foam::lduMatrix&)
    in file matrices/lduMatrix/lduMatrix/lduMatrixOperations.C at line 290
    Unknown matrix type combination
    this : symmetric    A    : empty
   Normalisation factor = 1e-20
DICPCG:  Solving for cellDisplacementx, Initial residual = 0, Final residual = 0, No Iterations 0
   Normalisation factor = 1e-20
DICPCG:  Solving for cellDisplacementy, Initial residual = 0, Final residual = 0, No Iterations 0
   Normalisation factor = 1e-20
DICPCG:  Solving for cellDisplacementz, Initial residual = 0, Final residual = 0, No Iterations 0
   Normalisation factor = 15.3309
smoothSolver:  Solving for alpha.water, Initial residual = 0, Final residual = 0, No Iterations 1
Phase-1 volume fraction = 0.203305  Min(alpha.water) = 0  Max(alpha.water) = 1
MULES: Correcting alpha.water
MULES: Correcting alpha.water
Phase-1 volume fraction = 0.203305  Min(alpha.water) = 0  Max(alpha.water) = 1
--> FOAM Warning : 
    From void Foam::lduMatrix::operator-=(const Foam::lduMatrix&)
    in file matrices/lduMatrix/lduMatrix/lduMatrixOperations.C at line 290
    Unknown matrix type combination
    this : asymmetric    A    : empty
   Normalisation factor = 0.1878
DICPCG:  Solving for p_rgh, Initial residual = 1, Final residual = 0.00370237, No Iterations 1
   Normalisation factor = 0.382702
DICPCG:  Solving for p_rgh, Initial residual = 0.00181683, Final residual = 1.72807e-05, No Iterations 86
   Normalisation factor = 0.483504
DICPCG:  Solving for p_rgh, Initial residual = 1.3678e-05, Final residual = 1.21797e-07, No Iterations 114
   Normalisation factor = 0.483547
DICPCG:  Solving for p_rgh, Initial residual = 1.21786e-07, Final residual = 1.19473e-09, No Iterations 63
time step continuity errors : sum local = 2.72247e-11, global = -6.65297e-12, cumulative = -1.14254e-11
   Normalisation factor = 0.483547
DICPCG:  Solving for p_rgh, Initial residual = 4.92485e-08, Final residual = 8.78741e-10, No Iterations 121
   Normalisation factor = 0.483547
DICPCG:  Solving for p_rgh, Initial residual = 8.78742e-10, Final residual = 8.78742e-10, No Iterations 0
   Normalisation factor = 0.483547
DICPCG:  Solving for p_rgh, Initial residual = 8.78742e-10, Final residual = 8.78742e-10, No Iterations 0
   Normalisation factor = 0.483547
DICPCG:  Solving for p_rgh, Initial residual = 8.78742e-10, Final residual = 8.78742e-10, No Iterations 0
time step continuity errors : sum local = 2.00242e-11, global = 4.13897e-13, cumulative = -1.10115e-11
   Normalisation factor = 0.483547
DICPCG:  Solving for p_rgh, Initial residual = 8.80254e-10, Final residual = 8.80254e-10, No Iterations 0
   Normalisation factor = 0.483547
DICPCG:  Solving for p_rgh, Initial residual = 8.80254e-10, Final residual = 8.80254e-10, No Iterations 0
   Normalisation factor = 0.483547
DICPCG:  Solving for p_rgh, Initial residual = 8.80254e-10, Final residual = 8.80254e-10, No Iterations 0
   Normalisation factor = 0.483547
DICPCG:  Solving for p_rgh, Initial residual = 8.80254e-10, Final residual = 8.80254e-10, No Iterations 0
time step continuity errors : sum local = 2.00586e-11, global = 4.26824e-13, cumulative = -1.05847e-11
PIMPLE: iteration 2
--> FOAM Warning : 
    From Foam::labelHashSet Foam::polyBoundaryMesh::patchSet(const Foam::UList<Foam::wordRe>&, bool, bool) const
    in file meshes/polyMesh/polyBoundaryMesh/polyBoundaryMesh.C at line 1098
    Cannot find any patch or group names matching paddle
--> FOAM Warning : 
    From Foam::labelHashSet Foam::polyBoundaryMesh::patchSet(const Foam::UList<Foam::wordRe>&, bool, bool) const
    in file meshes/polyMesh/polyBoundaryMesh/polyBoundaryMesh.C at line 1098
    Cannot find any patch or group names matching flumeFloor
--> FOAM Warning : 
    From void Foam::lduMatrix::operator-=(const Foam::lduMatrix&)
    in file matrices/lduMatrix/lduMatrix/lduMatrixOperations.C at line 290
    Unknown matrix type combination
    this : symmetric    A    : empty
   Normalisation factor = 1e-20
DICPCG:  Solving for cellDisplacementx, Initial residual = 0, Final residual = 0, No Iterations 0
   Normalisation factor = 1e-20
DICPCG:  Solving for cellDisplacementy, Initial residual = 0, Final residual = 0, No Iterations 0
   Normalisation factor = 1e-20
DICPCG:  Solving for cellDisplacementz, Initial residual = 0, Final residual = 0, No Iterations 0
   Normalisation factor = 15.3309
smoothSolver:  Solving for alpha.water, Initial residual = 8.71065e-07, Final residual = 9.57946e-15, No Iterations 1
Phase-1 volume fraction = 0.203305  Min(alpha.water) = 0  Max(alpha.water) = 1
MULES: Correcting alpha.water
MULES: Correcting alpha.water
Phase-1 volume fraction = 0.203305  Min(alpha.water) = -1.20063e-71  Max(alpha.water) = 1
--> FOAM Warning : 
    From void Foam::lduMatrix::operator-=(const Foam::lduMatrix&)
    in file matrices/lduMatrix/lduMatrix/lduMatrixOperations.C at line 290
    Unknown matrix type combination
    this : asymmetric    A    : empty
   Normalisation factor = 0.470956
DICPCG:  Solving for p_rgh, Initial residual = 9.17156e-05, Final residual = 8.79655e-07, No Iterations 6
   Normalisation factor = 0.470942
DICPCG:  Solving for p_rgh, Initial residual = 8.79681e-07, Final residual = 8.50757e-09, No Iterations 102
   Normalisation factor = 0.470939
DICPCG:  Solving for p_rgh, Initial residual = 8.50762e-09, Final residual = 9.99348e-10, No Iterations 43
   Normalisation factor = 0.470939
DICPCG:  Solving for p_rgh, Initial residual = 9.99348e-10, Final residual = 9.99348e-10, No Iterations 0
time step continuity errors : sum local = 2.21787e-11, global = 1.41044e-12, cumulative = -9.17426e-12
   Normalisation factor = 0.470939
DICPCG:  Solving for p_rgh, Initial residual = 1.39395e-08, Final residual = 9.95762e-10, No Iterations 9
   Normalisation factor = 0.470939
DICPCG:  Solving for p_rgh, Initial residual = 9.95762e-10, Final residual = 9.95762e-10, No Iterations 0
   Normalisation factor = 0.470939
DICPCG:  Solving for p_rgh, Initial residual = 9.95762e-10, Final residual = 9.95762e-10, No Iterations 0
   Normalisation factor = 0.470939
DICPCG:  Solving for p_rgh, Initial residual = 9.95762e-10, Final residual = 9.95762e-10, No Iterations 0
time step continuity errors : sum local = 2.20991e-11, global = -1.77637e-13, cumulative = -9.3519e-12
   Normalisation factor = 0.470939
DICPCG:  Solving for p_rgh, Initial residual = 9.98041e-10, Final residual = 9.98041e-10, No Iterations 0
   Normalisation factor = 0.470939
DICPCG:  Solving for p_rgh, Initial residual = 9.98041e-10, Final residual = 9.98041e-10, No Iterations 0
   Normalisation factor = 0.470939
DICPCG:  Solving for p_rgh, Initial residual = 9.98041e-10, Final residual = 9.98041e-10, No Iterations 0
   Normalisation factor = 0.470939
DICPCG:  Solving for p_rgh, Initial residual = 9.98041e-10, Final residual = 9.98041e-10, No Iterations 0
time step continuity errors : sum local = 2.21497e-11, global = -1.78745e-13, cumulative = -9.53065e-12
PIMPLE: iteration 3
--> FOAM Warning : 
    From Foam::labelHashSet Foam::polyBoundaryMesh::patchSet(const Foam::UList<Foam::wordRe>&, bool, bool) const
    in file meshes/polyMesh/polyBoundaryMesh/polyBoundaryMesh.C at line 1098
    Cannot find any patch or group names matching paddle
--> FOAM Warning : 
    From Foam::labelHashSet Foam::polyBoundaryMesh::patchSet(const Foam::UList<Foam::wordRe>&, bool, bool) const
    in file meshes/polyMesh/polyBoundaryMesh/polyBoundaryMesh.C at line 1098
    Cannot find any patch or group names matching flumeFloor
--> FOAM Warning : 
    From void Foam::lduMatrix::operator-=(const Foam::lduMatrix&)
    in file matrices/lduMatrix/lduMatrix/lduMatrixOperations.C at line 290
    Unknown matrix type combination
    this : symmetric    A    : empty
   Normalisation factor = 1e-20
DICPCG:  Solving for cellDisplacementx, Initial residual = 0, Final residual = 0, No Iterations 0
   Normalisation factor = 1e-20
DICPCG:  Solving for cellDisplacementy, Initial residual = 0, Final residual = 0, No Iterations 0
   Normalisation factor = 1e-20
DICPCG:  Solving for cellDisplacementz, Initial residual = 0, Final residual = 0, No Iterations 0
   Normalisation factor = 15.3309
smoothSolver:  Solving for alpha.water, Initial residual = 6.78033e-08, Final residual = 8.09733e-16, No Iterations 1
Phase-1 volume fraction = 0.203305  Min(alpha.water) = -2.62514e-151  Max(alpha.water) = 1
MULES: Correcting alpha.water
MULES: Correcting alpha.water
Phase-1 volume fraction = 0.203305  Min(alpha.water) = -5.36386e-80  Max(alpha.water) = 1
--> FOAM Warning : 
    From void Foam::lduMatrix::operator-=(const Foam::lduMatrix&)
    in file matrices/lduMatrix/lduMatrix/lduMatrixOperations.C at line 290
    Unknown matrix type combination
    this : asymmetric    A    : empty
   Normalisation factor = 0.471386
DICPCG:  Solving for p_rgh, Initial residual = 1.01944e-05, Final residual = 9.58243e-08, No Iterations 11
   Normalisation factor = 0.471387
DICPCG:  Solving for p_rgh, Initial residual = 9.5824e-08, Final residual = 8.71909e-10, No Iterations 120
   Normalisation factor = 0.471388
DICPCG:  Solving for p_rgh, Initial residual = 8.71908e-10, Final residual = 8.71908e-10, No Iterations 0
   Normalisation factor = 0.471388
DICPCG:  Solving for p_rgh, Initial residual = 8.71908e-10, Final residual = 8.71908e-10, No Iterations 0
time step continuity errors : sum local = 1.93688e-11, global = 5.24362e-13, cumulative = -9.00628e-12
   Normalisation factor = 0.471388
DICPCG:  Solving for p_rgh, Initial residual = 2.1687e-09, Final residual = 6.66533e-10, No Iterations 1
   Normalisation factor = 0.471388
DICPCG:  Solving for p_rgh, Initial residual = 6.66533e-10, Final residual = 6.66533e-10, No Iterations 0
   Normalisation factor = 0.471388
DICPCG:  Solving for p_rgh, Initial residual = 6.66533e-10, Final residual = 6.66533e-10, No Iterations 0
   Normalisation factor = 0.471388
DICPCG:  Solving for p_rgh, Initial residual = 6.66533e-10, Final residual = 6.66533e-10, No Iterations 0
time step continuity errors : sum local = 1.48066e-11, global = 5.04856e-13, cumulative = -8.50143e-12
   Normalisation factor = 0.471388
DICPCG:  Solving for p_rgh, Initial residual = 6.66948e-10, Final residual = 6.66948e-10, No Iterations 0
   Normalisation factor = 0.471388
DICPCG:  Solving for p_rgh, Initial residual = 6.66948e-10, Final residual = 6.66948e-10, No Iterations 0
   Normalisation factor = 0.471388
DICPCG:  Solving for p_rgh, Initial residual = 6.66948e-10, Final residual = 6.66948e-10, No Iterations 0
   Normalisation factor = 0.471388
DICPCG:  Solving for p_rgh, Initial residual = 6.66948e-10, Final residual = 6.66948e-10, No Iterations 0
time step continuity errors : sum local = 1.48158e-11, global = 5.0489e-13, cumulative = -7.99654e-12
PIMPLE: iteration 4
--> FOAM Warning : 
    From Foam::labelHashSet Foam::polyBoundaryMesh::patchSet(const Foam::UList<Foam::wordRe>&, bool, bool) const
    in file meshes/polyMesh/polyBoundaryMesh/polyBoundaryMesh.C at line 1098
    Cannot find any patch or group names matching paddle
--> FOAM Warning : 
    From Foam::labelHashSet Foam::polyBoundaryMesh::patchSet(const Foam::UList<Foam::wordRe>&, bool, bool) const
    in file meshes/polyMesh/polyBoundaryMesh/polyBoundaryMesh.C at line 1098
    Cannot find any patch or group names matching flumeFloor
--> FOAM Warning : 
    From void Foam::lduMatrix::operator-=(const Foam::lduMatrix&)
    in file matrices/lduMatrix/lduMatrix/lduMatrixOperations.C at line 290
    Unknown matrix type combination
    this : symmetric    A    : empty
   Normalisation factor = 1e-20
DICPCG:  Solving for cellDisplacementx, Initial residual = 0, Final residual = 0, No Iterations 0
   Normalisation factor = 1e-20
DICPCG:  Solving for cellDisplacementy, Initial residual = 0, Final residual = 0, No Iterations 0
   Normalisation factor = 1e-20
DICPCG:  Solving for cellDisplacementz, Initial residual = 0, Final residual = 0, No Iterations 0
   Normalisation factor = 15.3309
smoothSolver:  Solving for alpha.water, Initial residual = 6.20119e-09, Final residual = 1.00759e-16, No Iterations 1
Phase-1 volume fraction = 0.203305  Min(alpha.water) = -2.53353e-151  Max(alpha.water) = 1
MULES: Correcting alpha.water
MULES: Correcting alpha.water
Phase-1 volume fraction = 0.203305  Min(alpha.water) = -3.60341e-84  Max(alpha.water) = 1
--> FOAM Warning : 
    From void Foam::lduMatrix::operator-=(const Foam::lduMatrix&)
    in file matrices/lduMatrix/lduMatrix/lduMatrixOperations.C at line 290
    Unknown matrix type combination
    this : asymmetric    A    : empty
   Normalisation factor = 0.47135
DICPCG:  Solving for p_rgh, Initial residual = 8.01523e-07, Final residual = 6.29597e-09, No Iterations 6
   Normalisation factor = 0.47135
DICPCG:  Solving for p_rgh, Initial residual = 6.29597e-09, Final residual = 9.24576e-10, No Iterations 14
   Normalisation factor = 0.47135
DICPCG:  Solving for p_rgh, Initial residual = 9.24576e-10, Final residual = 9.24576e-10, No Iterations 0
   Normalisation factor = 0.47135
DICPCG:  Solving for p_rgh, Initial residual = 9.24576e-10, Final residual = 9.24576e-10, No Iterations 0
time step continuity errors : sum local = 2.05372e-11, global = 1.9093e-12, cumulative = -6.08724e-12
   Normalisation factor = 0.47135
DICPCG:  Solving for p_rgh, Initial residual = 1.00643e-09, Final residual = 6.13666e-10, No Iterations 1
   Normalisation factor = 0.47135
DICPCG:  Solving for p_rgh, Initial residual = 6.13666e-10, Final residual = 6.13666e-10, No Iterations 0
   Normalisation factor = 0.47135
DICPCG:  Solving for p_rgh, Initial residual = 6.13666e-10, Final residual = 6.13666e-10, No Iterations 0
   Normalisation factor = 0.47135
DICPCG:  Solving for p_rgh, Initial residual = 6.13666e-10, Final residual = 6.13666e-10, No Iterations 0
time step continuity errors : sum local = 1.36311e-11, global = 1.95316e-12, cumulative = -4.13408e-12
   Normalisation factor = 0.47135
DICPCG:  Solving for p_rgh, Initial residual = 6.13564e-10, Final residual = 6.13564e-10, No Iterations 0
   Normalisation factor = 0.47135
DICPCG:  Solving for p_rgh, Initial residual = 6.13564e-10, Final residual = 6.13564e-10, No Iterations 0
   Normalisation factor = 0.47135
DICPCG:  Solving for p_rgh, Initial residual = 6.13564e-10, Final residual = 6.13564e-10, No Iterations 0
   Normalisation factor = 0.47135
DICPCG:  Solving for p_rgh, Initial residual = 6.13564e-10, Final residual = 6.13564e-10, No Iterations 0
time step continuity errors : sum local = 1.36288e-11, global = 1.95318e-12, cumulative = -2.1809e-12
PIMPLE: iteration 5
--> FOAM Warning : 
    From Foam::labelHashSet Foam::polyBoundaryMesh::patchSet(const Foam::UList<Foam::wordRe>&, bool, bool) const
    in file meshes/polyMesh/polyBoundaryMesh/polyBoundaryMesh.C at line 1098
    Cannot find any patch or group names matching paddle
--> FOAM Warning : 
    From Foam::labelHashSet Foam::polyBoundaryMesh::patchSet(const Foam::UList<Foam::wordRe>&, bool, bool) const
    in file meshes/polyMesh/polyBoundaryMesh/polyBoundaryMesh.C at line 1098
    Cannot find any patch or group names matching flumeFloor
--> FOAM Warning : 
    From void Foam::lduMatrix::operator-=(const Foam::lduMatrix&)
    in file matrices/lduMatrix/lduMatrix/lduMatrixOperations.C at line 290
    Unknown matrix type combination
    this : symmetric    A    : empty
   Normalisation factor = 1e-20
DICPCG:  Solving for cellDisplacementx, Initial residual = 0, Final residual = 0, No Iterations 0
   Normalisation factor = 1e-20
DICPCG:  Solving for cellDisplacementy, Initial residual = 0, Final residual = 0, No Iterations 0
   Normalisation factor = 1e-20
DICPCG:  Solving for cellDisplacementz, Initial residual = 0, Final residual = 0, No Iterations 0
   Normalisation factor = 15.3309
smoothSolver:  Solving for alpha.water, Initial residual = 6.26456e-10, Final residual = 3.09492e-17, No Iterations 1
Phase-1 volume fraction = 0.203305  Min(alpha.water) = -2.57493e-151  Max(alpha.water) = 1
MULES: Correcting alpha.water
MULES: Correcting alpha.water
Phase-1 volume fraction = 0.203305  Min(alpha.water) = -2.80409e-71  Max(alpha.water) = 1
--> FOAM Warning : 
    From void Foam::lduMatrix::operator-=(const Foam::lduMatrix&)
    in file matrices/lduMatrix/lduMatrix/lduMatrixOperations.C at line 290
    Unknown matrix type combination
    this : asymmetric    A    : empty
   Normalisation factor = 0.471354
DICPCG:  Solving for p_rgh, Initial residual = 8.72988e-08, Final residual = 9.69492e-10, No Iterations 15
   Normalisation factor = 0.471354
DICPCG:  Solving for p_rgh, Initial residual = 9.69492e-10, Final residual = 9.69492e-10, No Iterations 0
   Normalisation factor = 0.471354
DICPCG:  Solving for p_rgh, Initial residual = 9.69492e-10, Final residual = 9.69492e-10, No Iterations 0
   Normalisation factor = 0.471354
DICPCG:  Solving for p_rgh, Initial residual = 9.69492e-10, Final residual = 9.69492e-10, No Iterations 0
time step continuity errors : sum local = 2.1535e-11, global = -2.45305e-12, cumulative = -4.63395e-12
   Normalisation factor = 0.471354
DICPCG:  Solving for p_rgh, Initial residual = 9.75098e-10, Final residual = 9.75098e-10, No Iterations 0
   Normalisation factor = 0.471354
DICPCG:  Solving for p_rgh, Initial residual = 9.75098e-10, Final residual = 9.75098e-10, No Iterations 0
   Normalisation factor = 0.471354
DICPCG:  Solving for p_rgh, Initial residual = 9.75098e-10, Final residual = 9.75098e-10, No Iterations 0
   Normalisation factor = 0.471354
DICPCG:  Solving for p_rgh, Initial residual = 9.75098e-10, Final residual = 9.75098e-10, No Iterations 0
time step continuity errors : sum local = 2.16596e-11, global = -2.45548e-12, cumulative = -7.08943e-12
   Normalisation factor = 0.471354
DICPCG:  Solving for p_rgh, Initial residual = 9.75102e-10, Final residual = 9.75102e-10, No Iterations 0
   Normalisation factor = 0.471354
DICPCG:  Solving for p_rgh, Initial residual = 9.75102e-10, Final residual = 9.75102e-10, No Iterations 0
   Normalisation factor = 0.471354
DICPCG:  Solving for p_rgh, Initial residual = 9.75102e-10, Final residual = 9.75102e-10, No Iterations 0
   Normalisation factor = 0.471354
DICPCG:  Solving for p_rgh, Initial residual = 9.75102e-10, Final residual = 9.75102e-10, No Iterations 0
time step continuity errors : sum local = 2.16597e-11, global = -2.45548e-12, cumulative = -9.54491e-12
ExecutionTime = 2.23 s  ClockTime = 25 s

(0) 00:02:31 [impl::DataContext]:135 in mapData: [0mMapping "Force" for t=0.0001 from "OpenFOAM-Mesh" to "Coupling-Data-Projection-Mesh"
(0) 00:02:31 [impl::DataContext]:135 in mapData: [0mMapping "Displacement" for t=0.0001 from "Coupling-Data-Projection-Mesh" to "OpenFOAM-Mesh"
(0) 00:02:31 [impl::ParticipantImpl]:422 in advance: [0miteration: 3 of 100 (min 1), time-window: 1, time: 0 of 1, time-window-size: 0.0001, max-time-step-size: 0.0001, ongoing: yes, time-window-complete: no, read-iteration-checkpoint 
Courant Number mean: 0 max: 0
Interface Courant Number mean: 0 max: 0
Time = 0.0001

PIMPLE: iteration 1
--> FOAM Warning : 
    From Foam::labelHashSet Foam::polyBoundaryMesh::patchSet(const Foam::UList<Foam::wordRe>&, bool, bool) const
    in file meshes/polyMesh/polyBoundaryMesh/polyBoundaryMesh.C at line 1098
    Cannot find any patch or group names matching paddle
--> FOAM Warning : 
    From Foam::labelHashSet Foam::polyBoundaryMesh::patchSet(const Foam::UList<Foam::wordRe>&, bool, bool) const
    in file meshes/polyMesh/polyBoundaryMesh/polyBoundaryMesh.C at line 1098
    Cannot find any patch or group names matching flumeFloor
--> FOAM Warning : 
    From void Foam::lduMatrix::operator-=(const Foam::lduMatrix&)
    in file matrices/lduMatrix/lduMatrix/lduMatrixOperations.C at line 290
    Unknown matrix type combination
    this : symmetric    A    : empty
   Normalisation factor = 1e-20
DICPCG:  Solving for cellDisplacementx, Initial residual = 0, Final residual = 0, No Iterations 0
   Normalisation factor = 1e-20
DICPCG:  Solving for cellDisplacementy, Initial residual = 0, Final residual = 0, No Iterations 0
   Normalisation factor = 1e-20
DICPCG:  Solving for cellDisplacementz, Initial residual = 0, Final residual = 0, No Iterations 0
   Normalisation factor = 15.3309
smoothSolver:  Solving for alpha.water, Initial residual = 0, Final residual = 0, No Iterations 1
Phase-1 volume fraction = 0.203305  Min(alpha.water) = 0  Max(alpha.water) = 1
MULES: Correcting alpha.water
MULES: Correcting alpha.water
Phase-1 volume fraction = 0.203305  Min(alpha.water) = 0  Max(alpha.water) = 1
--> FOAM Warning : 
    From void Foam::lduMatrix::operator-=(const Foam::lduMatrix&)
    in file matrices/lduMatrix/lduMatrix/lduMatrixOperations.C at line 290
    Unknown matrix type combination
    this : asymmetric    A    : empty
   Normalisation factor = 0.1878
DICPCG:  Solving for p_rgh, Initial residual = 1, Final residual = 0.00370237, No Iterations 1
   Normalisation factor = 0.382702
DICPCG:  Solving for p_rgh, Initial residual = 0.00181683, Final residual = 1.72807e-05, No Iterations 86
   Normalisation factor = 0.483504
DICPCG:  Solving for p_rgh, Initial residual = 1.3678e-05, Final residual = 1.21797e-07, No Iterations 114
   Normalisation factor = 0.483547
DICPCG:  Solving for p_rgh, Initial residual = 1.21786e-07, Final residual = 1.19473e-09, No Iterations 63
time step continuity errors : sum local = 2.72247e-11, global = -6.65297e-12, cumulative = -1.61979e-11
   Normalisation factor = 0.483547
DICPCG:  Solving for p_rgh, Initial residual = 4.92485e-08, Final residual = 8.78741e-10, No Iterations 121
   Normalisation factor = 0.483547
DICPCG:  Solving for p_rgh, Initial residual = 8.78742e-10, Final residual = 8.78742e-10, No Iterations 0
   Normalisation factor = 0.483547
DICPCG:  Solving for p_rgh, Initial residual = 8.78742e-10, Final residual = 8.78742e-10, No Iterations 0
   Normalisation factor = 0.483547
DICPCG:  Solving for p_rgh, Initial residual = 8.78742e-10, Final residual = 8.78742e-10, No Iterations 0
time step continuity errors : sum local = 2.00242e-11, global = 4.13897e-13, cumulative = -1.5784e-11
   Normalisation factor = 0.483547
DICPCG:  Solving for p_rgh, Initial residual = 8.80254e-10, Final residual = 8.80254e-10, No Iterations 0
   Normalisation factor = 0.483547
DICPCG:  Solving for p_rgh, Initial residual = 8.80254e-10, Final residual = 8.80254e-10, No Iterations 0
   Normalisation factor = 0.483547
DICPCG:  Solving for p_rgh, Initial residual = 8.80254e-10, Final residual = 8.80254e-10, No Iterations 0
   Normalisation factor = 0.483547
DICPCG:  Solving for p_rgh, Initial residual = 8.80254e-10, Final residual = 8.80254e-10, No Iterations 0
time step continuity errors : sum local = 2.00586e-11, global = 4.26824e-13, cumulative = -1.53572e-11
PIMPLE: iteration 2
--> FOAM Warning : 
    From Foam::labelHashSet Foam::polyBoundaryMesh::patchSet(const Foam::UList<Foam::wordRe>&, bool, bool) const
    in file meshes/polyMesh/polyBoundaryMesh/polyBoundaryMesh.C at line 1098
    Cannot find any patch or group names matching paddle
--> FOAM Warning : 
    From Foam::labelHashSet Foam::polyBoundaryMesh::patchSet(const Foam::UList<Foam::wordRe>&, bool, bool) const
    in file meshes/polyMesh/polyBoundaryMesh/polyBoundaryMesh.C at line 1098
    Cannot find any patch or group names matching flumeFloor
--> FOAM Warning : 
    From void Foam::lduMatrix::operator-=(const Foam::lduMatrix&)
    in file matrices/lduMatrix/lduMatrix/lduMatrixOperations.C at line 290
    Unknown matrix type combination
    this : symmetric    A    : empty
   Normalisation factor = 1e-20
DICPCG:  Solving for cellDisplacementx, Initial residual = 0, Final residual = 0, No Iterations 0
   Normalisation factor = 1e-20
DICPCG:  Solving for cellDisplacementy, Initial residual = 0, Final residual = 0, No Iterations 0
   Normalisation factor = 1e-20
DICPCG:  Solving for cellDisplacementz, Initial residual = 0, Final residual = 0, No Iterations 0
   Normalisation factor = 15.3309
smoothSolver:  Solving for alpha.water, Initial residual = 8.71065e-07, Final residual = 9.57946e-15, No Iterations 1
Phase-1 volume fraction = 0.203305  Min(alpha.water) = 0  Max(alpha.water) = 1
MULES: Correcting alpha.water
MULES: Correcting alpha.water
Phase-1 volume fraction = 0.203305  Min(alpha.water) = -1.20063e-71  Max(alpha.water) = 1
--> FOAM Warning : 
    From void Foam::lduMatrix::operator-=(const Foam::lduMatrix&)
    in file matrices/lduMatrix/lduMatrix/lduMatrixOperations.C at line 290
    Unknown matrix type combination
    this : asymmetric    A    : empty
   Normalisation factor = 0.470956
DICPCG:  Solving for p_rgh, Initial residual = 9.17156e-05, Final residual = 8.79655e-07, No Iterations 6
   Normalisation factor = 0.470942
DICPCG:  Solving for p_rgh, Initial residual = 8.79681e-07, Final residual = 8.50757e-09, No Iterations 102
   Normalisation factor = 0.470939
DICPCG:  Solving for p_rgh, Initial residual = 8.50762e-09, Final residual = 9.99348e-10, No Iterations 43
   Normalisation factor = 0.470939
DICPCG:  Solving for p_rgh, Initial residual = 9.99348e-10, Final residual = 9.99348e-10, No Iterations 0
time step continuity errors : sum local = 2.21787e-11, global = 1.41044e-12, cumulative = -1.39467e-11
   Normalisation factor = 0.470939
DICPCG:  Solving for p_rgh, Initial residual = 1.39395e-08, Final residual = 9.95762e-10, No Iterations 9
   Normalisation factor = 0.470939
DICPCG:  Solving for p_rgh, Initial residual = 9.95762e-10, Final residual = 9.95762e-10, No Iterations 0
   Normalisation factor = 0.470939
DICPCG:  Solving for p_rgh, Initial residual = 9.95762e-10, Final residual = 9.95762e-10, No Iterations 0
   Normalisation factor = 0.470939
DICPCG:  Solving for p_rgh, Initial residual = 9.95762e-10, Final residual = 9.95762e-10, No Iterations 0
time step continuity errors : sum local = 2.20991e-11, global = -1.77637e-13, cumulative = -1.41244e-11
   Normalisation factor = 0.470939
DICPCG:  Solving for p_rgh, Initial residual = 9.98041e-10, Final residual = 9.98041e-10, No Iterations 0
   Normalisation factor = 0.470939
DICPCG:  Solving for p_rgh, Initial residual = 9.98041e-10, Final residual = 9.98041e-10, No Iterations 0
   Normalisation factor = 0.470939
DICPCG:  Solving for p_rgh, Initial residual = 9.98041e-10, Final residual = 9.98041e-10, No Iterations 0
   Normalisation factor = 0.470939
DICPCG:  Solving for p_rgh, Initial residual = 9.98041e-10, Final residual = 9.98041e-10, No Iterations 0
time step continuity errors : sum local = 2.21497e-11, global = -1.78745e-13, cumulative = -1.43031e-11
PIMPLE: iteration 3
--> FOAM Warning : 
    From Foam::labelHashSet Foam::polyBoundaryMesh::patchSet(const Foam::UList<Foam::wordRe>&, bool, bool) const
    in file meshes/polyMesh/polyBoundaryMesh/polyBoundaryMesh.C at line 1098
    Cannot find any patch or group names matching paddle
--> FOAM Warning : 
    From Foam::labelHashSet Foam::polyBoundaryMesh::patchSet(const Foam::UList<Foam::wordRe>&, bool, bool) const
    in file meshes/polyMesh/polyBoundaryMesh/polyBoundaryMesh.C at line 1098
    Cannot find any patch or group names matching flumeFloor
--> FOAM Warning : 
    From void Foam::lduMatrix::operator-=(const Foam::lduMatrix&)
    in file matrices/lduMatrix/lduMatrix/lduMatrixOperations.C at line 290
    Unknown matrix type combination
    this : symmetric    A    : empty
   Normalisation factor = 1e-20
DICPCG:  Solving for cellDisplacementx, Initial residual = 0, Final residual = 0, No Iterations 0
   Normalisation factor = 1e-20
DICPCG:  Solving for cellDisplacementy, Initial residual = 0, Final residual = 0, No Iterations 0
   Normalisation factor = 1e-20
DICPCG:  Solving for cellDisplacementz, Initial residual = 0, Final residual = 0, No Iterations 0
   Normalisation factor = 15.3309
smoothSolver:  Solving for alpha.water, Initial residual = 6.78033e-08, Final residual = 8.09733e-16, No Iterations 1
Phase-1 volume fraction = 0.203305  Min(alpha.water) = -2.62514e-151  Max(alpha.water) = 1
MULES: Correcting alpha.water
MULES: Correcting alpha.water
Phase-1 volume fraction = 0.203305  Min(alpha.water) = -5.36386e-80  Max(alpha.water) = 1
--> FOAM Warning : 
    From void Foam::lduMatrix::operator-=(const Foam::lduMatrix&)
    in file matrices/lduMatrix/lduMatrix/lduMatrixOperations.C at line 290
    Unknown matrix type combination
    this : asymmetric    A    : empty
   Normalisation factor = 0.471386
DICPCG:  Solving for p_rgh, Initial residual = 1.01944e-05, Final residual = 9.58243e-08, No Iterations 11
   Normalisation factor = 0.471387
DICPCG:  Solving for p_rgh, Initial residual = 9.5824e-08, Final residual = 8.71909e-10, No Iterations 120
   Normalisation factor = 0.471388
DICPCG:  Solving for p_rgh, Initial residual = 8.71908e-10, Final residual = 8.71908e-10, No Iterations 0
   Normalisation factor = 0.471388
DICPCG:  Solving for p_rgh, Initial residual = 8.71908e-10, Final residual = 8.71908e-10, No Iterations 0
time step continuity errors : sum local = 1.93688e-11, global = 5.24362e-13, cumulative = -1.37787e-11
   Normalisation factor = 0.471388
DICPCG:  Solving for p_rgh, Initial residual = 2.1687e-09, Final residual = 6.66533e-10, No Iterations 1
   Normalisation factor = 0.471388
DICPCG:  Solving for p_rgh, Initial residual = 6.66533e-10, Final residual = 6.66533e-10, No Iterations 0
   Normalisation factor = 0.471388
DICPCG:  Solving for p_rgh, Initial residual = 6.66533e-10, Final residual = 6.66533e-10, No Iterations 0
   Normalisation factor = 0.471388
DICPCG:  Solving for p_rgh, Initial residual = 6.66533e-10, Final residual = 6.66533e-10, No Iterations 0
time step continuity errors : sum local = 1.48066e-11, global = 5.04856e-13, cumulative = -1.32739e-11
   Normalisation factor = 0.471388
DICPCG:  Solving for p_rgh, Initial residual = 6.66948e-10, Final residual = 6.66948e-10, No Iterations 0
   Normalisation factor = 0.471388
DICPCG:  Solving for p_rgh, Initial residual = 6.66948e-10, Final residual = 6.66948e-10, No Iterations 0
   Normalisation factor = 0.471388
DICPCG:  Solving for p_rgh, Initial residual = 6.66948e-10, Final residual = 6.66948e-10, No Iterations 0
   Normalisation factor = 0.471388
DICPCG:  Solving for p_rgh, Initial residual = 6.66948e-10, Final residual = 6.66948e-10, No Iterations 0
time step continuity errors : sum local = 1.48158e-11, global = 5.0489e-13, cumulative = -1.2769e-11
PIMPLE: iteration 4
--> FOAM Warning : 
    From Foam::labelHashSet Foam::polyBoundaryMesh::patchSet(const Foam::UList<Foam::wordRe>&, bool, bool) const
    in file meshes/polyMesh/polyBoundaryMesh/polyBoundaryMesh.C at line 1098
    Cannot find any patch or group names matching paddle
--> FOAM Warning : 
    From Foam::labelHashSet Foam::polyBoundaryMesh::patchSet(const Foam::UList<Foam::wordRe>&, bool, bool) const
    in file meshes/polyMesh/polyBoundaryMesh/polyBoundaryMesh.C at line 1098
    Cannot find any patch or group names matching flumeFloor
--> FOAM Warning : 
    From void Foam::lduMatrix::operator-=(const Foam::lduMatrix&)
    in file matrices/lduMatrix/lduMatrix/lduMatrixOperations.C at line 290
    Unknown matrix type combination
    this : symmetric    A    : empty
   Normalisation factor = 1e-20
DICPCG:  Solving for cellDisplacementx, Initial residual = 0, Final residual = 0, No Iterations 0
   Normalisation factor = 1e-20
DICPCG:  Solving for cellDisplacementy, Initial residual = 0, Final residual = 0, No Iterations 0
   Normalisation factor = 1e-20
DICPCG:  Solving for cellDisplacementz, Initial residual = 0, Final residual = 0, No Iterations 0
   Normalisation factor = 15.3309
smoothSolver:  Solving for alpha.water, Initial residual = 6.20119e-09, Final residual = 1.00759e-16, No Iterations 1
Phase-1 volume fraction = 0.203305  Min(alpha.water) = -2.53353e-151  Max(alpha.water) = 1
MULES: Correcting alpha.water
MULES: Correcting alpha.water
Phase-1 volume fraction = 0.203305  Min(alpha.water) = -3.60341e-84  Max(alpha.water) = 1
--> FOAM Warning : 
    From void Foam::lduMatrix::operator-=(const Foam::lduMatrix&)
    in file matrices/lduMatrix/lduMatrix/lduMatrixOperations.C at line 290
    Unknown matrix type combination
    this : asymmetric    A    : empty
   Normalisation factor = 0.47135
DICPCG:  Solving for p_rgh, Initial residual = 8.01523e-07, Final residual = 6.29597e-09, No Iterations 6
   Normalisation factor = 0.47135
DICPCG:  Solving for p_rgh, Initial residual = 6.29597e-09, Final residual = 9.24576e-10, No Iterations 14
   Normalisation factor = 0.47135
DICPCG:  Solving for p_rgh, Initial residual = 9.24576e-10, Final residual = 9.24576e-10, No Iterations 0
   Normalisation factor = 0.47135
DICPCG:  Solving for p_rgh, Initial residual = 9.24576e-10, Final residual = 9.24576e-10, No Iterations 0
time step continuity errors : sum local = 2.05372e-11, global = 1.9093e-12, cumulative = -1.08597e-11
   Normalisation factor = 0.47135
DICPCG:  Solving for p_rgh, Initial residual = 1.00643e-09, Final residual = 6.13666e-10, No Iterations 1
   Normalisation factor = 0.47135
DICPCG:  Solving for p_rgh, Initial residual = 6.13666e-10, Final residual = 6.13666e-10, No Iterations 0
   Normalisation factor = 0.47135
DICPCG:  Solving for p_rgh, Initial residual = 6.13666e-10, Final residual = 6.13666e-10, No Iterations 0
   Normalisation factor = 0.47135
DICPCG:  Solving for p_rgh, Initial residual = 6.13666e-10, Final residual = 6.13666e-10, No Iterations 0
time step continuity errors : sum local = 1.36311e-11, global = 1.95316e-12, cumulative = -8.90653e-12
   Normalisation factor = 0.47135
DICPCG:  Solving for p_rgh, Initial residual = 6.13564e-10, Final residual = 6.13564e-10, No Iterations 0
   Normalisation factor = 0.47135
DICPCG:  Solving for p_rgh, Initial residual = 6.13564e-10, Final residual = 6.13564e-10, No Iterations 0
   Normalisation factor = 0.47135
DICPCG:  Solving for p_rgh, Initial residual = 6.13564e-10, Final residual = 6.13564e-10, No Iterations 0
   Normalisation factor = 0.47135
DICPCG:  Solving for p_rgh, Initial residual = 6.13564e-10, Final residual = 6.13564e-10, No Iterations 0
time step continuity errors : sum local = 1.36288e-11, global = 1.95318e-12, cumulative = -6.95336e-12
PIMPLE: iteration 5
--> FOAM Warning : 
    From Foam::labelHashSet Foam::polyBoundaryMesh::patchSet(const Foam::UList<Foam::wordRe>&, bool, bool) const
    in file meshes/polyMesh/polyBoundaryMesh/polyBoundaryMesh.C at line 1098
    Cannot find any patch or group names matching paddle
--> FOAM Warning : 
    From Foam::labelHashSet Foam::polyBoundaryMesh::patchSet(const Foam::UList<Foam::wordRe>&, bool, bool) const
    in file meshes/polyMesh/polyBoundaryMesh/polyBoundaryMesh.C at line 1098
    Cannot find any patch or group names matching flumeFloor
--> FOAM Warning : 
    From void Foam::lduMatrix::operator-=(const Foam::lduMatrix&)
    in file matrices/lduMatrix/lduMatrix/lduMatrixOperations.C at line 290
    Unknown matrix type combination
    this : symmetric    A    : empty
   Normalisation factor = 1e-20
DICPCG:  Solving for cellDisplacementx, Initial residual = 0, Final residual = 0, No Iterations 0
   Normalisation factor = 1e-20
DICPCG:  Solving for cellDisplacementy, Initial residual = 0, Final residual = 0, No Iterations 0
   Normalisation factor = 1e-20
DICPCG:  Solving for cellDisplacementz, Initial residual = 0, Final residual = 0, No Iterations 0
   Normalisation factor = 15.3309
smoothSolver:  Solving for alpha.water, Initial residual = 6.26456e-10, Final residual = 3.09492e-17, No Iterations 1
Phase-1 volume fraction = 0.203305  Min(alpha.water) = -2.57493e-151  Max(alpha.water) = 1
MULES: Correcting alpha.water
MULES: Correcting alpha.water
Phase-1 volume fraction = 0.203305  Min(alpha.water) = -2.80409e-71  Max(alpha.water) = 1
--> FOAM Warning : 
    From void Foam::lduMatrix::operator-=(const Foam::lduMatrix&)
    in file matrices/lduMatrix/lduMatrix/lduMatrixOperations.C at line 290
    Unknown matrix type combination
    this : asymmetric    A    : empty
   Normalisation factor = 0.471354
DICPCG:  Solving for p_rgh, Initial residual = 8.72988e-08, Final residual = 9.69492e-10, No Iterations 15
   Normalisation factor = 0.471354
DICPCG:  Solving for p_rgh, Initial residual = 9.69492e-10, Final residual = 9.69492e-10, No Iterations 0
   Normalisation factor = 0.471354
DICPCG:  Solving for p_rgh, Initial residual = 9.69492e-10, Final residual = 9.69492e-10, No Iterations 0
   Normalisation factor = 0.471354
DICPCG:  Solving for p_rgh, Initial residual = 9.69492e-10, Final residual = 9.69492e-10, No Iterations 0
time step continuity errors : sum local = 2.1535e-11, global = -2.45305e-12, cumulative = -9.40641e-12
   Normalisation factor = 0.471354
DICPCG:  Solving for p_rgh, Initial residual = 9.75098e-10, Final residual = 9.75098e-10, No Iterations 0
   Normalisation factor = 0.471354
DICPCG:  Solving for p_rgh, Initial residual = 9.75098e-10, Final residual = 9.75098e-10, No Iterations 0
   Normalisation factor = 0.471354
DICPCG:  Solving for p_rgh, Initial residual = 9.75098e-10, Final residual = 9.75098e-10, No Iterations 0
   Normalisation factor = 0.471354
DICPCG:  Solving for p_rgh, Initial residual = 9.75098e-10, Final residual = 9.75098e-10, No Iterations 0
time step continuity errors : sum local = 2.16596e-11, global = -2.45548e-12, cumulative = -1.18619e-11
   Normalisation factor = 0.471354
DICPCG:  Solving for p_rgh, Initial residual = 9.75102e-10, Final residual = 9.75102e-10, No Iterations 0
   Normalisation factor = 0.471354
DICPCG:  Solving for p_rgh, Initial residual = 9.75102e-10, Final residual = 9.75102e-10, No Iterations 0
   Normalisation factor = 0.471354
DICPCG:  Solving for p_rgh, Initial residual = 9.75102e-10, Final residual = 9.75102e-10, No Iterations 0
   Normalisation factor = 0.471354
DICPCG:  Solving for p_rgh, Initial residual = 9.75102e-10, Final residual = 9.75102e-10, No Iterations 0
time step continuity errors : sum local = 2.16597e-11, global = -2.45548e-12, cumulative = -1.43174e-11
ExecutionTime = 3.18 s  ClockTime = 26 s

(0) 00:02:32 [impl::DataContext]:135 in mapData: [0mMapping "Force" for t=0.0001 from "OpenFOAM-Mesh" to "Coupling-Data-Projection-Mesh"
(0) 00:02:32 [cplscheme::BaseCouplingScheme]:383 in secondExchange: [0mTime window completed
(0) 00:02:32 [impl::DataContext]:135 in mapData: [0mMapping "Displacement" for t=0.0001 from "Coupling-Data-Projection-Mesh" to "OpenFOAM-Mesh"
(0) 00:02:32 [impl::ParticipantImpl]:422 in advance: [0miteration: 1 of 100 (min 1), time-window: 2, time: 0.0001 of 1, time-window-size: 0.0001, max-time-step-size: 0.0001, ongoing: yes, time-window-complete: yes, write-iteration-checkpoint 
Courant Number mean: 2.88581e-05 max: 0.00196363
Interface Courant Number mean: 0 max: 0
Time = 0.0002

PIMPLE: iteration 1
--> FOAM Warning : 
    From Foam::labelHashSet Foam::polyBoundaryMesh::patchSet(const Foam::UList<Foam::wordRe>&, bool, bool) const
    in file meshes/polyMesh/polyBoundaryMesh/polyBoundaryMesh.C at line 1098
    Cannot find any patch or group names matching paddle
--> FOAM Warning : 
    From Foam::labelHashSet Foam::polyBoundaryMesh::patchSet(const Foam::UList<Foam::wordRe>&, bool, bool) const
    in file meshes/polyMesh/polyBoundaryMesh/polyBoundaryMesh.C at line 1098
    Cannot find any patch or group names matching flumeFloor
--> FOAM Warning : 
    From void Foam::lduMatrix::operator-=(const Foam::lduMatrix&)
    in file matrices/lduMatrix/lduMatrix/lduMatrixOperations.C at line 290
    Unknown matrix type combination
    this : symmetric    A    : empty
   Normalisation factor = 1e-20
DICPCG:  Solving for cellDisplacementx, Initial residual = 0, Final residual = 0, No Iterations 0
   Normalisation factor = 1e-20
DICPCG:  Solving for cellDisplacementy, Initial residual = 0, Final residual = 0, No Iterations 0
   Normalisation factor = 1e-20
DICPCG:  Solving for cellDisplacementz, Initial residual = 0, Final residual = 0, No Iterations 0
   Normalisation factor = 15.3309
smoothSolver:  Solving for alpha.water, Initial residual = 8.06959e-07, Final residual = 6.19005e-15, No Iterations 1
Phase-1 volume fraction = 0.203305  Min(alpha.water) = -5.09211e-151  Max(alpha.water) = 1
MULES: Correcting alpha.water
MULES: Correcting alpha.water
Phase-1 volume fraction = 0.203305  Min(alpha.water) = -6.40562e-71  Max(alpha.water) = 1
--> FOAM Warning : 
    From void Foam::lduMatrix::operator-=(const Foam::lduMatrix&)
    in file matrices/lduMatrix/lduMatrix/lduMatrixOperations.C at line 290
    Unknown matrix type combination
    this : asymmetric    A    : empty
   Normalisation factor = 0.465705
DICPCG:  Solving for p_rgh, Initial residual = 9.19839e-05, Final residual = 8.81044e-07, No Iterations 35
   Normalisation factor = 0.465764
DICPCG:  Solving for p_rgh, Initial residual = 8.80932e-07, Final residual = 8.26629e-09, No Iterations 120
   Normalisation factor = 0.465766
DICPCG:  Solving for p_rgh, Initial residual = 8.26626e-09, Final residual = 9.5948e-10, No Iterations 36
   Normalisation factor = 0.465766
DICPCG:  Solving for p_rgh, Initial residual = 9.5948e-10, Final residual = 9.5948e-10, No Iterations 0
time step continuity errors : sum local = 2.106e-11, global = 7.19197e-14, cumulative = -1.42454e-11
   Normalisation factor = 0.465766
DICPCG:  Solving for p_rgh, Initial residual = 3.49288e-07, Final residual = 3.30197e-09, No Iterations 83
   Normalisation factor = 0.465764
DICPCG:  Solving for p_rgh, Initial residual = 3.30198e-09, Final residual = 9.61867e-10, No Iterations 60
   Normalisation factor = 0.465764
DICPCG:  Solving for p_rgh, Initial residual = 9.61867e-10, Final residual = 9.61867e-10, No Iterations 0
   Normalisation factor = 0.465764
DICPCG:  Solving for p_rgh, Initial residual = 9.61867e-10, Final residual = 9.61867e-10, No Iterations 0
time step continuity errors : sum local = 2.11123e-11, global = -2.74598e-12, cumulative = -1.69914e-11
   Normalisation factor = 0.465764
DICPCG:  Solving for p_rgh, Initial residual = 1.17157e-09, Final residual = 7.29359e-10, No Iterations 1
   Normalisation factor = 0.465764
DICPCG:  Solving for p_rgh, Initial residual = 7.29359e-10, Final residual = 7.29359e-10, No Iterations 0
   Normalisation factor = 0.465764
DICPCG:  Solving for p_rgh, Initial residual = 7.29359e-10, Final residual = 7.29359e-10, No Iterations 0
   Normalisation factor = 0.465764
DICPCG:  Solving for p_rgh, Initial residual = 7.29359e-10, Final residual = 7.29359e-10, No Iterations 0
time step continuity errors : sum local = 1.60089e-11, global = -2.81972e-12, cumulative = -1.98111e-11
PIMPLE: iteration 2
--> FOAM Warning : 
    From Foam::labelHashSet Foam::polyBoundaryMesh::patchSet(const Foam::UList<Foam::wordRe>&, bool, bool) const
    in file meshes/polyMesh/polyBoundaryMesh/polyBoundaryMesh.C at line 1098
    Cannot find any patch or group names matching paddle
--> FOAM Warning : 
    From Foam::labelHashSet Foam::polyBoundaryMesh::patchSet(const Foam::UList<Foam::wordRe>&, bool, bool) const
    in file meshes/polyMesh/polyBoundaryMesh/polyBoundaryMesh.C at line 1098
    Cannot find any patch or group names matching flumeFloor
--> FOAM Warning : 
    From void Foam::lduMatrix::operator-=(const Foam::lduMatrix&)
    in file matrices/lduMatrix/lduMatrix/lduMatrixOperations.C at line 290
    Unknown matrix type combination
    this : symmetric    A    : empty
   Normalisation factor = 1e-20
DICPCG:  Solving for cellDisplacementx, Initial residual = 0, Final residual = 0, No Iterations 0
   Normalisation factor = 1e-20
DICPCG:  Solving for cellDisplacementy, Initial residual = 0, Final residual = 0, No Iterations 0
   Normalisation factor = 1e-20
DICPCG:  Solving for cellDisplacementz, Initial residual = 0, Final residual = 0, No Iterations 0
   Normalisation factor = 15.3309
smoothSolver:  Solving for alpha.water, Initial residual = 6.40838e-07, Final residual = 1.0104e-14, No Iterations 1
Phase-1 volume fraction = 0.203305  Min(alpha.water) = -1.43718e-150  Max(alpha.water) = 1
MULES: Correcting alpha.water
MULES: Correcting alpha.water
Phase-1 volume fraction = 0.203305  Min(alpha.water) = -1.55363e-41  Max(alpha.water) = 1
--> FOAM Warning : 
    From void Foam::lduMatrix::operator-=(const Foam::lduMatrix&)
    in file matrices/lduMatrix/lduMatrix/lduMatrixOperations.C at line 290
    Unknown matrix type combination
    this : asymmetric    A    : empty
   Normalisation factor = 0.461663
DICPCG:  Solving for p_rgh, Initial residual = 4.98845e-05, Final residual = 4.77032e-07, No Iterations 10
   Normalisation factor = 0.461657
DICPCG:  Solving for p_rgh, Initial residual = 4.77038e-07, Final residual = 4.35681e-09, No Iterations 98
   Normalisation factor = 0.461655
DICPCG:  Solving for p_rgh, Initial residual = 4.35683e-09, Final residual = 9.87198e-10, No Iterations 32
   Normalisation factor = 0.461655
DICPCG:  Solving for p_rgh, Initial residual = 9.87198e-10, Final residual = 9.87198e-10, No Iterations 0
time step continuity errors : sum local = 2.14772e-11, global = -7.67255e-13, cumulative = -2.05784e-11
   Normalisation factor = 0.461655
DICPCG:  Solving for p_rgh, Initial residual = 1.05414e-08, Final residual = 8.44893e-10, No Iterations 7
   Normalisation factor = 0.461655
DICPCG:  Solving for p_rgh, Initial residual = 8.44893e-10, Final residual = 8.44893e-10, No Iterations 0
   Normalisation factor = 0.461655
DICPCG:  Solving for p_rgh, Initial residual = 8.44893e-10, Final residual = 8.44893e-10, No Iterations 0
   Normalisation factor = 0.461655
DICPCG:  Solving for p_rgh, Initial residual = 8.44893e-10, Final residual = 8.44893e-10, No Iterations 0
time step continuity errors : sum local = 1.83812e-11, global = -7.63946e-13, cumulative = -2.13423e-11
   Normalisation factor = 0.461655
DICPCG:  Solving for p_rgh, Initial residual = 8.54287e-10, Final residual = 8.54287e-10, No Iterations 0
   Normalisation factor = 0.461655
DICPCG:  Solving for p_rgh, Initial residual = 8.54287e-10, Final residual = 8.54287e-10, No Iterations 0
   Normalisation factor = 0.461655
DICPCG:  Solving for p_rgh, Initial residual = 8.54287e-10, Final residual = 8.54287e-10, No Iterations 0
   Normalisation factor = 0.461655
DICPCG:  Solving for p_rgh, Initial residual = 8.54287e-10, Final residual = 8.54287e-10, No Iterations 0
time step continuity errors : sum local = 1.85856e-11, global = -7.64202e-13, cumulative = -2.21065e-11
PIMPLE: iteration 3
--> FOAM Warning : 
    From Foam::labelHashSet Foam::polyBoundaryMesh::patchSet(const Foam::UList<Foam::wordRe>&, bool, bool) const
    in file meshes/polyMesh/polyBoundaryMesh/polyBoundaryMesh.C at line 1098
    Cannot find any patch or group names matching paddle
--> FOAM Warning : 
    From Foam::labelHashSet Foam::polyBoundaryMesh::patchSet(const Foam::UList<Foam::wordRe>&, bool, bool) const
    in file meshes/polyMesh/polyBoundaryMesh/polyBoundaryMesh.C at line 1098
    Cannot find any patch or group names matching flumeFloor
--> FOAM Warning : 
    From void Foam::lduMatrix::operator-=(const Foam::lduMatrix&)
    in file matrices/lduMatrix/lduMatrix/lduMatrixOperations.C at line 290
    Unknown matrix type combination
    this : symmetric    A    : empty
   Normalisation factor = 1e-20
DICPCG:  Solving for cellDisplacementx, Initial residual = 0, Final residual = 0, No Iterations 0
   Normalisation factor = 1e-20
DICPCG:  Solving for cellDisplacementy, Initial residual = 0, Final residual = 0, No Iterations 0
   Normalisation factor = 1e-20
DICPCG:  Solving for cellDisplacementz, Initial residual = 0, Final residual = 0, No Iterations 0
   Normalisation factor = 15.3309
smoothSolver:  Solving for alpha.water, Initial residual = 2.92029e-08, Final residual = 1.03686e-15, No Iterations 1
Phase-1 volume fraction = 0.203305  Min(alpha.water) = -3.56088e-137  Max(alpha.water) = 1
MULES: Correcting alpha.water
MULES: Correcting alpha.water
Phase-1 volume fraction = 0.203305  Min(alpha.water) = -1.27283e-41  Max(alpha.water) = 1
--> FOAM Warning : 
    From void Foam::lduMatrix::operator-=(const Foam::lduMatrix&)
    in file matrices/lduMatrix/lduMatrix/lduMatrixOperations.C at line 290
    Unknown matrix type combination
    this : asymmetric    A    : empty
   Normalisation factor = 0.461707
DICPCG:  Solving for p_rgh, Initial residual = 3.5338e-06, Final residual = 3.12995e-08, No Iterations 12
   Normalisation factor = 0.461708
DICPCG:  Solving for p_rgh, Initial residual = 3.12994e-08, Final residual = 9.47925e-10, No Iterations 111
   Normalisation factor = 0.461708
DICPCG:  Solving for p_rgh, Initial residual = 9.47925e-10, Final residual = 9.47925e-10, No Iterations 0
   Normalisation factor = 0.461708
DICPCG:  Solving for p_rgh, Initial residual = 9.47925e-10, Final residual = 9.47925e-10, No Iterations 0
time step continuity errors : sum local = 2.06251e-11, global = 5.55206e-13, cumulative = -2.15513e-11
   Normalisation factor = 0.461708
DICPCG:  Solving for p_rgh, Initial residual = 1.74528e-09, Final residual = 6.38996e-10, No Iterations 1
   Normalisation factor = 0.461708
DICPCG:  Solving for p_rgh, Initial residual = 6.38996e-10, Final residual = 6.38996e-10, No Iterations 0
   Normalisation factor = 0.461708
DICPCG:  Solving for p_rgh, Initial residual = 6.38996e-10, Final residual = 6.38996e-10, No Iterations 0
   Normalisation factor = 0.461708
DICPCG:  Solving for p_rgh, Initial residual = 6.38996e-10, Final residual = 6.38996e-10, No Iterations 0
time step continuity errors : sum local = 1.39034e-11, global = 5.62787e-13, cumulative = -2.09886e-11
   Normalisation factor = 0.461708
DICPCG:  Solving for p_rgh, Initial residual = 6.39596e-10, Final residual = 6.39596e-10, No Iterations 0
   Normalisation factor = 0.461708
DICPCG:  Solving for p_rgh, Initial residual = 6.39596e-10, Final residual = 6.39596e-10, No Iterations 0
   Normalisation factor = 0.461708
DICPCG:  Solving for p_rgh, Initial residual = 6.39596e-10, Final residual = 6.39596e-10, No Iterations 0
   Normalisation factor = 0.461708
DICPCG:  Solving for p_rgh, Initial residual = 6.39596e-10, Final residual = 6.39596e-10, No Iterations 0
time step continuity errors : sum local = 1.39164e-11, global = 5.62797e-13, cumulative = -2.04258e-11
PIMPLE: iteration 4
--> FOAM Warning : 
    From Foam::labelHashSet Foam::polyBoundaryMesh::patchSet(const Foam::UList<Foam::wordRe>&, bool, bool) const
    in file meshes/polyMesh/polyBoundaryMesh/polyBoundaryMesh.C at line 1098
    Cannot find any patch or group names matching paddle
--> FOAM Warning : 
    From Foam::labelHashSet Foam::polyBoundaryMesh::patchSet(const Foam::UList<Foam::wordRe>&, bool, bool) const
    in file meshes/polyMesh/polyBoundaryMesh/polyBoundaryMesh.C at line 1098
    Cannot find any patch or group names matching flumeFloor
--> FOAM Warning : 
    From void Foam::lduMatrix::operator-=(const Foam::lduMatrix&)
    in file matrices/lduMatrix/lduMatrix/lduMatrixOperations.C at line 290
    Unknown matrix type combination
    this : symmetric    A    : empty
   Normalisation factor = 1e-20
DICPCG:  Solving for cellDisplacementx, Initial residual = 0, Final residual = 0, No Iterations 0
   Normalisation factor = 1e-20
DICPCG:  Solving for cellDisplacementy, Initial residual = 0, Final residual = 0, No Iterations 0
   Normalisation factor = 1e-20
DICPCG:  Solving for cellDisplacementz, Initial residual = 0, Final residual = 0, No Iterations 0
   Normalisation factor = 15.3309
smoothSolver:  Solving for alpha.water, Initial residual = 5.94926e-09, Final residual = 1.59961e-16, No Iterations 1
Phase-1 volume fraction = 0.203305  Min(alpha.water) = -4.18104e-137  Max(alpha.water) = 1
MULES: Correcting alpha.water
MULES: Correcting alpha.water
Phase-1 volume fraction = 0.203305  Min(alpha.water) = -1.2929e-41  Max(alpha.water) = 1
--> FOAM Warning : 
    From void Foam::lduMatrix::operator-=(const Foam::lduMatrix&)
    in file matrices/lduMatrix/lduMatrix/lduMatrixOperations.C at line 290
    Unknown matrix type combination
[...]
time step continuity errors : sum local = 8.14884e-12, global = 3.90328e-13, cumulative = -1.00117e-09
   Normalisation factor = 0.187121
DICPCG:  Solving for p_rgh, Initial residual = 1.05089e-09, Final residual = 6.59977e-10, No Iterations 1
   Normalisation factor = 0.187121
DICPCG:  Solving for p_rgh, Initial residual = 6.59977e-10, Final residual = 6.59977e-10, No Iterations 0
   Normalisation factor = 0.187121
DICPCG:  Solving for p_rgh, Initial residual = 6.59977e-10, Final residual = 6.59977e-10, No Iterations 0
   Normalisation factor = 0.187121
DICPCG:  Solving for p_rgh, Initial residual = 6.59977e-10, Final residual = 6.59977e-10, No Iterations 0
time step continuity errors : sum local = 5.81979e-12, global = 3.87643e-13, cumulative = -1.00079e-09
PIMPLE: iteration 3
--> FOAM Warning : 
    From Foam::labelHashSet Foam::polyBoundaryMesh::patchSet(const Foam::UList<Foam::wordRe>&, bool, bool) const
    in file meshes/polyMesh/polyBoundaryMesh/polyBoundaryMesh.C at line 1098
    Cannot find any patch or group names matching paddle
--> FOAM Warning : 
    From Foam::labelHashSet Foam::polyBoundaryMesh::patchSet(const Foam::UList<Foam::wordRe>&, bool, bool) const
    in file meshes/polyMesh/polyBoundaryMesh/polyBoundaryMesh.C at line 1098
    Cannot find any patch or group names matching flumeFloor
--> FOAM Warning : 
    From void Foam::lduMatrix::operator-=(const Foam::lduMatrix&)
    in file matrices/lduMatrix/lduMatrix/lduMatrixOperations.C at line 290
    Unknown matrix type combination
    this : symmetric    A    : empty
   Normalisation factor = 1e-20
DICPCG:  Solving for cellDisplacementx, Initial residual = 0, Final residual = 0, No Iterations 0
   Normalisation factor = 1e-20
DICPCG:  Solving for cellDisplacementy, Initial residual = 0, Final residual = 0, No Iterations 0
   Normalisation factor = 1e-20
DICPCG:  Solving for cellDisplacementz, Initial residual = 0, Final residual = 0, No Iterations 0
   Normalisation factor = 15.2944
smoothSolver:  Solving for alpha.water, Initial residual = 2.81367e-05, Final residual = 1.43902e-09, No Iterations 1
Phase-1 volume fraction = 0.203305  Min(alpha.water) = 0  Max(alpha.water) = 1
MULES: Correcting alpha.water
MULES: Correcting alpha.water
Phase-1 volume fraction = 0.203305  Min(alpha.water) = -2.66637e-95  Max(alpha.water) = 1
--> FOAM Warning : 
    From void Foam::lduMatrix::operator-=(const Foam::lduMatrix&)
    in file matrices/lduMatrix/lduMatrix/lduMatrixOperations.C at line 290
    Unknown matrix type combination
    this : asymmetric    A    : empty
   Normalisation factor = 0.187121
DICPCG:  Solving for p_rgh, Initial residual = 1.94643e-08, Final residual = 9.80567e-10, No Iterations 19
   Normalisation factor = 0.187121
DICPCG:  Solving for p_rgh, Initial residual = 9.80567e-10, Final residual = 9.80567e-10, No Iterations 0
   Normalisation factor = 0.187121
DICPCG:  Solving for p_rgh, Initial residual = 9.80567e-10, Final residual = 9.80567e-10, No Iterations 0
   Normalisation factor = 0.187121
DICPCG:  Solving for p_rgh, Initial residual = 9.80567e-10, Final residual = 9.80567e-10, No Iterations 0
time step continuity errors : sum local = 8.6468e-12, global = -5.05481e-13, cumulative = -1.00129e-09
   Normalisation factor = 0.187121
DICPCG:  Solving for p_rgh, Initial residual = 1.14724e-09, Final residual = 6.44036e-10, No Iterations 1
   Normalisation factor = 0.187121
DICPCG:  Solving for p_rgh, Initial residual = 6.44036e-10, Final residual = 6.44036e-10, No Iterations 0
   Normalisation factor = 0.187121
DICPCG:  Solving for p_rgh, Initial residual = 6.44036e-10, Final residual = 6.44036e-10, No Iterations 0
   Normalisation factor = 0.187121
DICPCG:  Solving for p_rgh, Initial residual = 6.44036e-10, Final residual = 6.44036e-10, No Iterations 0
time step continuity errors : sum local = 5.67921e-12, global = -5.17499e-13, cumulative = -1.00181e-09
   Normalisation factor = 0.187121
DICPCG:  Solving for p_rgh, Initial residual = 6.43743e-10, Final residual = 6.43743e-10, No Iterations 0
   Normalisation factor = 0.187121
DICPCG:  Solving for p_rgh, Initial residual = 6.43743e-10, Final residual = 6.43743e-10, No Iterations 0
   Normalisation factor = 0.187121
DICPCG:  Solving for p_rgh, Initial residual = 6.43743e-10, Final residual = 6.43743e-10, No Iterations 0
   Normalisation factor = 0.187121
DICPCG:  Solving for p_rgh, Initial residual = 6.43743e-10, Final residual = 6.43743e-10, No Iterations 0
time step continuity errors : sum local = 5.67664e-12, global = -5.17476e-13, cumulative = -1.00233e-09
PIMPLE: iteration 4
--> FOAM Warning : 
    From Foam::labelHashSet Foam::polyBoundaryMesh::patchSet(const Foam::UList<Foam::wordRe>&, bool, bool) const
    in file meshes/polyMesh/polyBoundaryMesh/polyBoundaryMesh.C at line 1098
    Cannot find any patch or group names matching paddle
--> FOAM Warning : 
    From Foam::labelHashSet Foam::polyBoundaryMesh::patchSet(const Foam::UList<Foam::wordRe>&, bool, bool) const
    in file meshes/polyMesh/polyBoundaryMesh/polyBoundaryMesh.C at line 1098
    Cannot find any patch or group names matching flumeFloor
--> FOAM Warning : 
    From void Foam::lduMatrix::operator-=(const Foam::lduMatrix&)
    in file matrices/lduMatrix/lduMatrix/lduMatrixOperations.C at line 290
    Unknown matrix type combination
    this : symmetric    A    : empty
   Normalisation factor = 1e-20
DICPCG:  Solving for cellDisplacementx, Initial residual = 0, Final residual = 0, No Iterations 0
   Normalisation factor = 1e-20
DICPCG:  Solving for cellDisplacementy, Initial residual = 0, Final residual = 0, No Iterations 0
   Normalisation factor = 1e-20
DICPCG:  Solving for cellDisplacementz, Initial residual = 0, Final residual = 0, No Iterations 0
   Normalisation factor = 15.2944
smoothSolver:  Solving for alpha.water, Initial residual = 2.81366e-05, Final residual = 1.43901e-09, No Iterations 1
Phase-1 volume fraction = 0.203305  Min(alpha.water) = 0  Max(alpha.water) = 1
MULES: Correcting alpha.water
MULES: Correcting alpha.water
Phase-1 volume fraction = 0.203305  Min(alpha.water) = -2.67609e-95  Max(alpha.water) = 1
--> FOAM Warning : 
    From void Foam::lduMatrix::operator-=(const Foam::lduMatrix&)
    in file matrices/lduMatrix/lduMatrix/lduMatrixOperations.C at line 290
    Unknown matrix type combination
    this : asymmetric    A    : empty
   Normalisation factor = 0.187121
DICPCG:  Solving for p_rgh, Initial residual = 9.52795e-10, Final residual = 9.52795e-10, No Iterations 0
   Normalisation factor = 0.187121
DICPCG:  Solving for p_rgh, Initial residual = 9.52795e-10, Final residual = 9.52795e-10, No Iterations 0
   Normalisation factor = 0.187121
DICPCG:  Solving for p_rgh, Initial residual = 9.52795e-10, Final residual = 9.52795e-10, No Iterations 0
   Normalisation factor = 0.187121
DICPCG:  Solving for p_rgh, Initial residual = 9.52795e-10, Final residual = 9.52795e-10, No Iterations 0
time step continuity errors : sum local = 8.4019e-12, global = -5.22958e-13, cumulative = -1.00285e-09
   Normalisation factor = 0.187121
DICPCG:  Solving for p_rgh, Initial residual = 9.50625e-10, Final residual = 9.50625e-10, No Iterations 0
   Normalisation factor = 0.187121
DICPCG:  Solving for p_rgh, Initial residual = 9.50625e-10, Final residual = 9.50625e-10, No Iterations 0
   Normalisation factor = 0.187121
DICPCG:  Solving for p_rgh, Initial residual = 9.50625e-10, Final residual = 9.50625e-10, No Iterations 0
   Normalisation factor = 0.187121
DICPCG:  Solving for p_rgh, Initial residual = 9.50625e-10, Final residual = 9.50625e-10, No Iterations 0
time step continuity errors : sum local = 8.38277e-12, global = -5.22941e-13, cumulative = -1.00337e-09
   Normalisation factor = 0.187121
DICPCG:  Solving for p_rgh, Initial residual = 9.50602e-10, Final residual = 9.50602e-10, No Iterations 0
   Normalisation factor = 0.187121
DICPCG:  Solving for p_rgh, Initial residual = 9.50602e-10, Final residual = 9.50602e-10, No Iterations 0
   Normalisation factor = 0.187121
DICPCG:  Solving for p_rgh, Initial residual = 9.50602e-10, Final residual = 9.50602e-10, No Iterations 0
   Normalisation factor = 0.187121
DICPCG:  Solving for p_rgh, Initial residual = 9.50602e-10, Final residual = 9.50602e-10, No Iterations 0
time step continuity errors : sum local = 8.38257e-12, global = -5.22941e-13, cumulative = -1.0039e-09
PIMPLE: iteration 5
--> FOAM Warning : 
    From Foam::labelHashSet Foam::polyBoundaryMesh::patchSet(const Foam::UList<Foam::wordRe>&, bool, bool) const
    in file meshes/polyMesh/polyBoundaryMesh/polyBoundaryMesh.C at line 1098
    Cannot find any patch or group names matching paddle
--> FOAM Warning : 
    From Foam::labelHashSet Foam::polyBoundaryMesh::patchSet(const Foam::UList<Foam::wordRe>&, bool, bool) const
    in file meshes/polyMesh/polyBoundaryMesh/polyBoundaryMesh.C at line 1098
    Cannot find any patch or group names matching flumeFloor
--> FOAM Warning : 
    From void Foam::lduMatrix::operator-=(const Foam::lduMatrix&)
    in file matrices/lduMatrix/lduMatrix/lduMatrixOperations.C at line 290
    Unknown matrix type combination
    this : symmetric    A    : empty
   Normalisation factor = 1e-20
DICPCG:  Solving for cellDisplacementx, Initial residual = 0, Final residual = 0, No Iterations 0
   Normalisation factor = 1e-20
DICPCG:  Solving for cellDisplacementy, Initial residual = 0, Final residual = 0, No Iterations 0
   Normalisation factor = 1e-20
DICPCG:  Solving for cellDisplacementz, Initial residual = 0, Final residual = 0, No Iterations 0
   Normalisation factor = 15.2944
smoothSolver:  Solving for alpha.water, Initial residual = 2.81366e-05, Final residual = 1.43901e-09, No Iterations 1
Phase-1 volume fraction = 0.203305  Min(alpha.water) = 0  Max(alpha.water) = 1
MULES: Correcting alpha.water
MULES: Correcting alpha.water
Phase-1 volume fraction = 0.203305  Min(alpha.water) = -2.67819e-95  Max(alpha.water) = 1
--> FOAM Warning : 
    From void Foam::lduMatrix::operator-=(const Foam::lduMatrix&)
    in file matrices/lduMatrix/lduMatrix/lduMatrixOperations.C at line 290
    Unknown matrix type combination
    this : asymmetric    A    : empty
   Normalisation factor = 0.187121
DICPCG:  Solving for p_rgh, Initial residual = 9.63002e-10, Final residual = 9.63002e-10, No Iterations 0
   Normalisation factor = 0.187121
DICPCG:  Solving for p_rgh, Initial residual = 9.63002e-10, Final residual = 9.63002e-10, No Iterations 0
   Normalisation factor = 0.187121
DICPCG:  Solving for p_rgh, Initial residual = 9.63002e-10, Final residual = 9.63002e-10, No Iterations 0
   Normalisation factor = 0.187121
DICPCG:  Solving for p_rgh, Initial residual = 9.63002e-10, Final residual = 9.63002e-10, No Iterations 0
time step continuity errors : sum local = 8.49191e-12, global = -5.22984e-13, cumulative = -1.00442e-09
   Normalisation factor = 0.187121
DICPCG:  Solving for p_rgh, Initial residual = 9.62826e-10, Final residual = 9.62826e-10, No Iterations 0
   Normalisation factor = 0.187121
DICPCG:  Solving for p_rgh, Initial residual = 9.62826e-10, Final residual = 9.62826e-10, No Iterations 0
   Normalisation factor = 0.187121
DICPCG:  Solving for p_rgh, Initial residual = 9.62826e-10, Final residual = 9.62826e-10, No Iterations 0
   Normalisation factor = 0.187121
DICPCG:  Solving for p_rgh, Initial residual = 9.62826e-10, Final residual = 9.62826e-10, No Iterations 0
time step continuity errors : sum local = 8.49036e-12, global = -5.22984e-13, cumulative = -1.00494e-09
   Normalisation factor = 0.187121
DICPCG:  Solving for p_rgh, Initial residual = 9.62826e-10, Final residual = 9.62826e-10, No Iterations 0
   Normalisation factor = 0.187121
DICPCG:  Solving for p_rgh, Initial residual = 9.62826e-10, Final residual = 9.62826e-10, No Iterations 0
   Normalisation factor = 0.187121
DICPCG:  Solving for p_rgh, Initial residual = 9.62826e-10, Final residual = 9.62826e-10, No Iterations 0
   Normalisation factor = 0.187121
DICPCG:  Solving for p_rgh, Initial residual = 9.62826e-10, Final residual = 9.62826e-10, No Iterations 0
time step continuity errors : sum local = 8.49036e-12, global = -5.22984e-13, cumulative = -1.00546e-09
ExecutionTime = 146 s  ClockTime = 169 s

(0) 00:04:55 [impl::DataContext]:135 in mapData: [0mMapping "Force" for t=0.016900000000000002 from "OpenFOAM-Mesh" to "Coupling-Data-Projection-Mesh"
(0) 00:04:55 [cplscheme::BaseCouplingScheme]:383 in secondExchange: [0mTime window completed
(0) 00:04:55 [impl::DataContext]:135 in mapData: [0mMapping "Displacement" for t=0.016900000000000002 from "Coupling-Data-Projection-Mesh" to "OpenFOAM-Mesh"
(0) 00:04:55 [impl::ParticipantImpl]:422 in advance: [0miteration: 1 of 100 (min 1), time-window: 170, time: 0.0169 of 1, time-window-size: 0.0001, max-time-step-size: 0.0001, ongoing: yes, time-window-complete: yes, write-iteration-checkpoint 
Courant Number mean: 0.00447182 max: 0.0467806
Interface Courant Number mean: 0.000147693 max: 0.0460294
Time = 0.017

PIMPLE: iteration 1
--> FOAM Warning : 
    From Foam::labelHashSet Foam::polyBoundaryMesh::patchSet(const Foam::UList<Foam::wordRe>&, bool, bool) const
    in file meshes/polyMesh/polyBoundaryMesh/polyBoundaryMesh.C at line 1098
    Cannot find any patch or group names matching paddle
--> FOAM Warning : 
    From Foam::labelHashSet Foam::polyBoundaryMesh::patchSet(const Foam::UList<Foam::wordRe>&, bool, bool) const
    in file meshes/polyMesh/polyBoundaryMesh/polyBoundaryMesh.C at line 1098
    Cannot find any patch or group names matching flumeFloor
--> FOAM Warning : 
    From void Foam::lduMatrix::operator-=(const Foam::lduMatrix&)
    in file matrices/lduMatrix/lduMatrix/lduMatrixOperations.C at line 290
    Unknown matrix type combination
    this : symmetric    A    : empty
   Normalisation factor = 1e-20
DICPCG:  Solving for cellDisplacementx, Initial residual = 0, Final residual = 0, No Iterations 0
   Normalisation factor = 1e-20
DICPCG:  Solving for cellDisplacementy, Initial residual = 0, Final residual = 0, No Iterations 0
   Normalisation factor = 1e-20
DICPCG:  Solving for cellDisplacementz, Initial residual = 0, Final residual = 0, No Iterations 0
   Normalisation factor = 15.2941
smoothSolver:  Solving for alpha.water, Initial residual = 5.98313e-05, Final residual = 3.04883e-09, No Iterations 1
Phase-1 volume fraction = 0.203305  Min(alpha.water) = 0  Max(alpha.water) = 1
MULES: Correcting alpha.water
MULES: Correcting alpha.water
Phase-1 volume fraction = 0.203305  Min(alpha.water) = -2.96113e-95  Max(alpha.water) = 1
--> FOAM Warning : 
    From void Foam::lduMatrix::operator-=(const Foam::lduMatrix&)
    in file matrices/lduMatrix/lduMatrix/lduMatrixOperations.C at line 290
    Unknown matrix type combination
    this : asymmetric    A    : empty
   Normalisation factor = 0.18684
DICPCG:  Solving for p_rgh, Initial residual = 0.00148621, Final residual = 1.16992e-05, No Iterations 2
   Normalisation factor = 0.18676
DICPCG:  Solving for p_rgh, Initial residual = 1.17043e-05, Final residual = 1.1495e-07, No Iterations 54
   Normalisation factor = 0.187015
DICPCG:  Solving for p_rgh, Initial residual = 1.14793e-07, Final residual = 1.14159e-09, No Iterations 70
   Normalisation factor = 0.187015
DICPCG:  Solving for p_rgh, Initial residual = 1.14159e-09, Final residual = 7.88548e-10, No Iterations 1
time step continuity errors : sum local = 6.94958e-12, global = 7.22851e-13, cumulative = -1.00474e-09
   Normalisation factor = 0.187015
DICPCG:  Solving for p_rgh, Initial residual = 1.69056e-06, Final residual = 1.65302e-08, No Iterations 85
   Normalisation factor = 0.186794
DICPCG:  Solving for p_rgh, Initial residual = 1.65497e-08, Final residual = 9.42601e-10, No Iterations 83
   Normalisation factor = 0.186794
DICPCG:  Solving for p_rgh, Initial residual = 9.42601e-10, Final residual = 9.42601e-10, No Iterations 0
   Normalisation factor = 0.186794
DICPCG:  Solving for p_rgh, Initial residual = 9.42601e-10, Final residual = 9.42601e-10, No Iterations 0
time step continuity errors : sum local = 8.29748e-12, global = -1.3341e-12, cumulative = -1.00608e-09
   Normalisation factor = 0.186794
DICPCG:  Solving for p_rgh, Initial residual = 3.91235e-08, Final residual = 9.11967e-10, No Iterations 53
   Normalisation factor = 0.186792
DICPCG:  Solving for p_rgh, Initial residual = 9.11978e-10, Final residual = 9.11978e-10, No Iterations 0
   Normalisation factor = 0.186792
DICPCG:  Solving for p_rgh, Initial residual = 9.11978e-10, Final residual = 9.11978e-10, No Iterations 0
   Normalisation factor = 0.186792
DICPCG:  Solving for p_rgh, Initial residual = 9.11978e-10, Final residual = 9.11978e-10, No Iterations 0
time step continuity errors : sum local = 8.02782e-12, global = -1.4745e-12, cumulative = -1.00755e-09
PIMPLE: iteration 2
--> FOAM Warning : 
    From Foam::labelHashSet Foam::polyBoundaryMesh::patchSet(const Foam::UList<Foam::wordRe>&, bool, bool) const
    in file meshes/polyMesh/polyBoundaryMesh/polyBoundaryMesh.C at line 1098
    Cannot find any patch or group names matching paddle
--> FOAM Warning : 
    From Foam::labelHashSet Foam::polyBoundaryMesh::patchSet(const Foam::UList<Foam::wordRe>&, bool, bool) const
    in file meshes/polyMesh/polyBoundaryMesh/polyBoundaryMesh.C at line 1098
    Cannot find any patch or group names matching flumeFloor
--> FOAM Warning : 
    From void Foam::lduMatrix::operator-=(const Foam::lduMatrix&)
    in file matrices/lduMatrix/lduMatrix/lduMatrixOperations.C at line 290
    Unknown matrix type combination
    this : symmetric    A    : empty
   Normalisation factor = 1e-20
DICPCG:  Solving for cellDisplacementx, Initial residual = 0, Final residual = 0, No Iterations 0
   Normalisation factor = 1e-20
DICPCG:  Solving for cellDisplacementy, Initial residual = 0, Final residual = 0, No Iterations 0
   Normalisation factor = 1e-20
DICPCG:  Solving for cellDisplacementz, Initial residual = 0, Final residual = 0, No Iterations 0
   Normalisation factor = 15.2943
smoothSolver:  Solving for alpha.water, Initial residual = 2.81889e-05, Final residual = 1.45712e-09, No Iterations 1
Phase-1 volume fraction = 0.203305  Min(alpha.water) = 0  Max(alpha.water) = 1
MULES: Correcting alpha.water
MULES: Correcting alpha.water
Phase-1 volume fraction = 0.203305  Min(alpha.water) = -4.19754e-95  Max(alpha.water) = 1
--> FOAM Warning : 
    From void Foam::lduMatrix::operator-=(const Foam::lduMatrix&)
    in file matrices/lduMatrix/lduMatrix/lduMatrixOperations.C at line 290
    Unknown matrix type combination
    this : asymmetric    A    : empty
   Normalisation factor = 0.186786
DICPCG:  Solving for p_rgh, Initial residual = 9.20414e-06, Final residual = 8.83185e-08, No Iterations 39
   Normalisation factor = 0.186799
DICPCG:  Solving for p_rgh, Initial residual = 8.83123e-08, Final residual = 9.34509e-10, No Iterations 117
   Normalisation factor = 0.186799
DICPCG:  Solving for p_rgh, Initial residual = 9.34507e-10, Final residual = 9.34507e-10, No Iterations 0
   Normalisation factor = 0.186799
DICPCG:  Solving for p_rgh, Initial residual = 9.34507e-10, Final residual = 9.34507e-10, No Iterations 0
time step continuity errors : sum local = 8.22645e-12, global = 5.82738e-13, cumulative = -1.00697e-09
   Normalisation factor = 0.186799
DICPCG:  Solving for p_rgh, Initial residual = 1.4461e-08, Final residual = 9.40158e-10, No Iterations 14
   Normalisation factor = 0.186799
DICPCG:  Solving for p_rgh, Initial residual = 9.40158e-10, Final residual = 9.40158e-10, No Iterations 0
   Normalisation factor = 0.186799
DICPCG:  Solving for p_rgh, Initial residual = 9.40158e-10, Final residual = 9.40158e-10, No Iterations 0
   Normalisation factor = 0.186799
DICPCG:  Solving for p_rgh, Initial residual = 9.40158e-10, Final residual = 9.40158e-10, No Iterations 0
time step continuity errors : sum local = 8.27619e-12, global = 4.03571e-13, cumulative = -1.00656e-09
   Normalisation factor = 0.186799
