/*---------------------------------------------------------------------------*\
| =========                 |                                                 |
| \\      /  F ield         | OpenFOAM: The Open Source CFD Toolbox           |
|  \\    /   O peration     | Version:  2406                                  |
|   \\  /    A nd           | Website:  www.openfoam.com                      |
|    \\/     M anipulation  |                                                 |
\*---------------------------------------------------------------------------*/
Build  : d6df40a5e2-20240822 OPENFOAM=2406 version=v2406
Arch   : "LSB;label=32;scalar=64"
Exec   : setFields -case OpenFOAMCase
Date   : Nov 14 2024
Time   : 00:02:04
Host   : nicolette-OptiPlex-9020
PID    : 570552
I/O    : uncollated
Case   : /home/nicolette/Desktop/WorkingFiles/CantileverBeam/preliminaryGroundMotion/RunCase/OpenFOAMCase
nProcs : 1
trapFpe: Floating point exception trapping enabled (FOAM_SIGFPE).
fileModificationChecking : Monitoring run-time modified files using timeStampMaster (fileModificationSkew 5, maxFileModificationPolls 20)
allowSystemOperations : Allowing user-supplied system call operations

// * * * * * * * * * * * * * * * * * * * * * * * * * * * * * * * * * * * * * //
Create time

Overriding DebugSwitches according to controlDict
    level (unregistered)
    lduMatrix       2;

    libs (unregistered)
Overriding OptimisationSwitches according to controlDict
    fileHandler (unregistered)
    maxThreadFileBufferSize 1e+09;

    maxMasterFileBufferSize 1e+09;

Overriding fileHandler to collated
I/O    : collated [threaded] (maxThreadFileBufferSize = 1e+09).
         Requires buffer large enough to collect all data or MPI thread support.
         To avoid MPI threading [slow], set (maxThreadFileBufferSize = 0) in
         OpenFOAM etc/controlDict
Create mesh for time = 0

Reading setFieldsDict

Setting volume field default values
    - set internal values of volScalarField: alpha.water = 0
    - set internal values of volVectorField: U = (0 0 0)

Setting field region values

    Adding cells with centre within boxes 1((-1 0 0) (-0.14 0.292 1))
    Selected 6426/24144 cells
    - set internal values of volScalarField: alpha.water = 1

End

