/*---------------------------------------------------------------------------*\
| =========                 |                                                 |
| \\      /  F ield         | OpenFOAM: The Open Source CFD Toolbox           |
|  \\    /   O peration     | Version:  2406                                  |
|   \\  /    A nd           | Website:  www.openfoam.com                      |
|    \\/     M anipulation  |                                                 |
\*---------------------------------------------------------------------------*/
Build  : d6df40a5e2-20240822 OPENFOAM=2406 version=v2406
Arch   : "LSB;label=32;scalar=64"
Exec   : interFoam -case OpenFOAMCase
Date   : Nov 13 2024
Time   : 22:52:21
Host   : nicolette-OptiPlex-9020
PID    : 566326
I/O    : uncollated
Case   : /home/nicolette/Desktop/WorkingFiles/CantileverBeam/noGroundMotion/RunCase/OpenFOAMCase
nProcs : 1
trapFpe: Floating point exception trapping enabled (FOAM_SIGFPE).
fileModificationChecking : Monitoring run-time modified files using timeStampMaster (fileModificationSkew 5, maxFileModificationPolls 20)
allowSystemOperations : Allowing user-supplied system call operations

// * * * * * * * * * * * * * * * * * * * * * * * * * * * * * * * * * * * * * //
Create time

Overriding DebugSwitches according to controlDict
    level (unregistered)
    lduMatrix       2;

    libs (unregistered)
Overriding OptimisationSwitches according to controlDict
    fileHandler (unregistered)
    maxThreadFileBufferSize 1e+09;

    maxMasterFileBufferSize 1e+09;

Overriding fileHandler to collated
I/O    : collated [threaded] (maxThreadFileBufferSize = 1e+09).
         Requires buffer large enough to collect all data or MPI thread support.
         To avoid MPI threading [slow], set (maxThreadFileBufferSize = 0) in
         OpenFOAM etc/controlDict
Create mesh for time = 0

Selecting dynamicFvMesh dynamicMotionSolverFvMesh
Selecting motion solver: displacementLaplacian
Applying motion to entire mesh
Selecting motion diffusion: quadratic
Selecting motion diffusion: inverseDistance
--> FOAM Warning : 
    From Foam::labelHashSet Foam::polyBoundaryMesh::patchSet(const Foam::UList<Foam::wordRe>&, bool, bool) const
    in file meshes/polyMesh/polyBoundaryMesh/polyBoundaryMesh.C at line 1098
    Cannot find any patch or group names matching paddle
--> FOAM Warning : 
    From Foam::labelHashSet Foam::polyBoundaryMesh::patchSet(const Foam::UList<Foam::wordRe>&, bool, bool) const
    in file meshes/polyMesh/polyBoundaryMesh/polyBoundaryMesh.C at line 1098
    Cannot find any patch or group names matching flumeFloor
Selecting patchDistMethod meshWave

PIMPLE: no residual control data found. Calculations will employ 5 corrector loops

Reading field p_rgh

Reading field U

Reading/calculating face flux field phi

Reading transportProperties

Selecting incompressible transport model Newtonian
Selecting incompressible transport model Newtonian
Selecting turbulence model type laminar
Selecting laminar stress model Stokes

Reading g

Reading hRef
Calculating field g.h

No MRF models present

Creating finite volume options from "constant/fvOptions"

Selecting finite volume options type buoyancyForce
    Source: buoyancy1
   Normalisation factor = 1e-20
DICPCG:  Solving for pcorr, Initial residual = 0, Final residual = 0, No Iterations 0
   Normalisation factor = 1e-20
DICPCG:  Solving for pcorr, Initial residual = 0, Final residual = 0, No Iterations 0
   Normalisation factor = 1e-20
DICPCG:  Solving for pcorr, Initial residual = 0, Final residual = 0, No Iterations 0
   Normalisation factor = 1e-20
DICPCG:  Solving for pcorr, Initial residual = 0, Final residual = 0, No Iterations 0
time step continuity errors : sum local = 0, global = 0, cumulative = 0
Constructing face velocity Uf

Courant Number mean: 0 max: 0

Starting time loop

---[preciceAdapter] Loaded the OpenFOAM-preCICE adapter - v1.3.1.
---[preciceAdapter] Reading preciceDict...
(0) 22:52:21 [impl::ParticipantImpl]:177 in configure: [0mThis is preCICE version 3.1.2
(0) 22:52:21 [impl::ParticipantImpl]:178 in configure: [0mRevision info: v3.1.2-126-g70a2362a
(0) 22:52:21 [impl::ParticipantImpl]:179 in configure: [0mBuild type: Release (without debug log)
(0) 22:52:21 [impl::ParticipantImpl]:197 in configure: [0mConfiguring preCICE with configuration "./precice-config.xml"
(0) 22:52:21 [impl::ParticipantImpl]:198 in configure: [0mI am participant "OpenFOAMCase"
(0) 22:52:21 [impl::ParticipantImpl]:316 in setupCommunication: [0mSetting up primary communication to coupling partner/s
(0) 22:52:22 [impl::ParticipantImpl]:330 in setupCommunication: [0mPrimary ranks are connected
(0) 22:52:22 [impl::ParticipantImpl]:334 in setupCommunication: [0mSetting up preliminary secondary communication to coupling partner/s
(0) 22:52:22 [partition::ReceivedPartition]:68 in communicate: [0mReceive global mesh Coupling-Data-Projection-Mesh
(0) 22:52:22 [partition::ProvidedPartition]:120 in prepare: [0mPrepare partition for mesh OpenFOAM-Mesh
(0) 22:52:22 [impl::ParticipantImpl]:342 in setupCommunication: [0mSetting up secondary communication to coupling partner/s
(0) 22:52:22 [impl::ParticipantImpl]:348 in setupCommunication: [0mSecondary ranks are connected
(0) 22:52:22 [impl::ParticipantImpl]:1444 in computeMappings: [0mComputing "nearest-neighbor" mapping from mesh "OpenFOAM-Mesh" to mesh "Coupling-Data-Projection-Mesh" in "write" direction.
(0) 22:52:22 [mapping::NearestNeighborMapping]:80 in computeMapping: [0mMapping distance min:0 max:1.6665e-08 avg: 9.10165e-09 var: 6.69163e-17 cnt: 104
(0) 22:52:22 [impl::DataContext]:135 in mapData: [0mMapping "Force" for t=0 from "OpenFOAM-Mesh" to "Coupling-Data-Projection-Mesh" (skipped zero sample)
(0) 22:52:22 [impl::ParticipantImpl]:1444 in computeMappings: [0mComputing "nearest-neighbor" mapping from mesh "Coupling-Data-Projection-Mesh" to mesh "OpenFOAM-Mesh" in "read" direction.
(0) 22:52:22 [mapping::NearestNeighborMapping]:80 in computeMapping: [0mMapping distance min:0 max:1.6665e-08 avg: 9.10165e-09 var: 6.69163e-17 cnt: 104
(0) 22:52:22 [impl::DataContext]:135 in mapData: [0mMapping "Displacement" for t=0 from "Coupling-Data-Projection-Mesh" to "OpenFOAM-Mesh" (skipped zero sample)
(0) 22:52:22 [impl::ParticipantImpl]:281 in initialize: [0miteration: 1, time-window: 1, time: 0 of 1, time-window-size: 0.0001, max-time-step-size: 0.0001, ongoing: yes, time-window-complete: no, 
---[preciceAdapter] preCICE was configured and initialized
--> FOAM Warning : 
    From void adapterInfo(std::string, std::string)
    in file Utilities.C at line 17
    [36mWarning in the preCICE adapter: [0m
The solver's timestep cannot be larger than the coupling timestep. Adjusting from 0.000500 to 0.000100

---[preciceAdapter] Setting the solver's endTime to infinity to prevent early exits. Only preCICE will control the simulation's endTime. Any functionObject's end() method will be triggered by the adapter. You may disable this behavior in the adapter's configuration.
--> FOAM Warning : 
    From void Foam::timeControl::read(const Foam::dictionary&)
    in file db/functionObjects/timeControl/timeControl.C at line 131
    Reading "system/controlDict/functions/freeSurfaceVTK" at line 74 to 98
    Found deprecated 'outputControl'
    Use 'writeControl' with 'writeInterval'
Sampled surface:
    freeSurface -> vtk
        isoSurface: freeSurface : isoMethod:cell regularise:none snap:1 field:alpha.water value:(0.5)

--> FOAM Warning : 
    From void Foam::timeControl::read(const Foam::dictionary&)
    in file db/functionObjects/timeControl/timeControl.C at line 131
    Reading "system/controlDict/functions/XSec1" at line 102 to 132
    Found deprecated 'outputControl'
    Use 'writeControl' with 'writeInterval'
Sampled surface:
    interpolatedSurface -> vtk
        sampledCuttingPlane: interpolatedSurface : plane:(0 0 1) (0.1 0.01 0.01) offsets:(0)

--> FOAM Warning : 
    From void Foam::timeControl::read(const Foam::dictionary&)
    in file db/functionObjects/timeControl/timeControl.C at line 131
    Reading "system/controlDict/functions/structureInterface" at line 136 to 159
    Found deprecated 'outputControl'
    Use 'writeControl' with 'writeInterval'
Sampled surface:
    interface -> vtk
        sampledPatch: interface : patches:(interface)

forces interface:
    rho: rhoInf
    Freestream density (rhoInf) set to 1000
    Not including porosity effects

forces baseForces:
    rho: rhoInf
    Freestream density (rhoInf) set to 1000
    Reference pressure (pRef) set to 0
    Not including porosity effects

forces storyForces:
    rho: rhoInf
    Freestream density (rhoInf) set to 1000
    Reference pressure (pRef) set to 0
    Not including porosity effects

Courant Number mean: 0 max: 0
Interface Courant Number mean: 0 max: 0
Time = 0.0001

PIMPLE: iteration 1
--> FOAM Warning : 
    From Foam::labelHashSet Foam::polyBoundaryMesh::patchSet(const Foam::UList<Foam::wordRe>&, bool, bool) const
    in file meshes/polyMesh/polyBoundaryMesh/polyBoundaryMesh.C at line 1098
    Cannot find any patch or group names matching paddle
--> FOAM Warning : 
    From Foam::labelHashSet Foam::polyBoundaryMesh::patchSet(const Foam::UList<Foam::wordRe>&, bool, bool) const
    in file meshes/polyMesh/polyBoundaryMesh/polyBoundaryMesh.C at line 1098
    Cannot find any patch or group names matching flumeFloor
--> FOAM Warning : 
    From void Foam::lduMatrix::operator-=(const Foam::lduMatrix&)
    in file matrices/lduMatrix/lduMatrix/lduMatrixOperations.C at line 290
    Unknown matrix type combination
    this : symmetric    A    : empty
   Normalisation factor = 1e-20
DICPCG:  Solving for cellDisplacementx, Initial residual = 0, Final residual = 0, No Iterations 0
   Normalisation factor = 1e-20
DICPCG:  Solving for cellDisplacementy, Initial residual = 0, Final residual = 0, No Iterations 0
   Normalisation factor = 1e-20
DICPCG:  Solving for cellDisplacementz, Initial residual = 0, Final residual = 0, No Iterations 0
   Normalisation factor = 15.3309
smoothSolver:  Solving for alpha.water, Initial residual = 0, Final residual = 0, No Iterations 1
Phase-1 volume fraction = 0.203305  Min(alpha.water) = 0  Max(alpha.water) = 1
MULES: Correcting alpha.water
MULES: Correcting alpha.water
Phase-1 volume fraction = 0.203305  Min(alpha.water) = 0  Max(alpha.water) = 1
--> FOAM Warning : 
    From void Foam::lduMatrix::operator-=(const Foam::lduMatrix&)
    in file matrices/lduMatrix/lduMatrix/lduMatrixOperations.C at line 290
    Unknown matrix type combination
    this : asymmetric    A    : empty
   Normalisation factor = 0.1878
DICPCG:  Solving for p_rgh, Initial residual = 1, Final residual = 0.00370237, No Iterations 1
   Normalisation factor = 0.382703
DICPCG:  Solving for p_rgh, Initial residual = 0.00181683, Final residual = 1.78034e-05, No Iterations 82
   Normalisation factor = 0.483498
DICPCG:  Solving for p_rgh, Initial residual = 1.40919e-05, Final residual = 1.2713e-07, No Iterations 94
   Normalisation factor = 0.483545
DICPCG:  Solving for p_rgh, Initial residual = 1.27118e-07, Final residual = 1.25813e-09, No Iterations 96
time step continuity errors : sum local = 2.86694e-11, global = -2.26623e-12, cumulative = -2.26623e-12
   Normalisation factor = 0.483547
DICPCG:  Solving for p_rgh, Initial residual = 4.92836e-08, Final residual = 9.62522e-10, No Iterations 112
   Normalisation factor = 0.483547
DICPCG:  Solving for p_rgh, Initial residual = 9.62524e-10, Final residual = 9.62524e-10, No Iterations 0
   Normalisation factor = 0.483547
DICPCG:  Solving for p_rgh, Initial residual = 9.62524e-10, Final residual = 9.62524e-10, No Iterations 0
   Normalisation factor = 0.483547
DICPCG:  Solving for p_rgh, Initial residual = 9.62524e-10, Final residual = 9.62524e-10, No Iterations 0
time step continuity errors : sum local = 2.19333e-11, global = 9.47702e-13, cumulative = -1.31853e-12
   Normalisation factor = 0.483547
DICPCG:  Solving for p_rgh, Initial residual = 9.63941e-10, Final residual = 9.63941e-10, No Iterations 0
   Normalisation factor = 0.483547
DICPCG:  Solving for p_rgh, Initial residual = 9.63941e-10, Final residual = 9.63941e-10, No Iterations 0
   Normalisation factor = 0.483547
DICPCG:  Solving for p_rgh, Initial residual = 9.63941e-10, Final residual = 9.63941e-10, No Iterations 0
   Normalisation factor = 0.483547
DICPCG:  Solving for p_rgh, Initial residual = 9.63941e-10, Final residual = 9.63941e-10, No Iterations 0
time step continuity errors : sum local = 2.19656e-11, global = 9.58631e-13, cumulative = -3.59895e-13
PIMPLE: iteration 2
--> FOAM Warning : 
    From Foam::labelHashSet Foam::polyBoundaryMesh::patchSet(const Foam::UList<Foam::wordRe>&, bool, bool) const
    in file meshes/polyMesh/polyBoundaryMesh/polyBoundaryMesh.C at line 1098
    Cannot find any patch or group names matching paddle
--> FOAM Warning : 
    From Foam::labelHashSet Foam::polyBoundaryMesh::patchSet(const Foam::UList<Foam::wordRe>&, bool, bool) const
    in file meshes/polyMesh/polyBoundaryMesh/polyBoundaryMesh.C at line 1098
    Cannot find any patch or group names matching flumeFloor
--> FOAM Warning : 
    From void Foam::lduMatrix::operator-=(const Foam::lduMatrix&)
    in file matrices/lduMatrix/lduMatrix/lduMatrixOperations.C at line 290
    Unknown matrix type combination
    this : symmetric    A    : empty
   Normalisation factor = 1e-20
DICPCG:  Solving for cellDisplacementx, Initial residual = 0, Final residual = 0, No Iterations 0
   Normalisation factor = 1e-20
DICPCG:  Solving for cellDisplacementy, Initial residual = 0, Final residual = 0, No Iterations 0
   Normalisation factor = 1e-20
DICPCG:  Solving for cellDisplacementz, Initial residual = 0, Final residual = 0, No Iterations 0
   Normalisation factor = 15.3309
smoothSolver:  Solving for alpha.water, Initial residual = 8.71065e-07, Final residual = 9.57937e-15, No Iterations 1
Phase-1 volume fraction = 0.203305  Min(alpha.water) = 0  Max(alpha.water) = 1
MULES: Correcting alpha.water
MULES: Correcting alpha.water
Phase-1 volume fraction = 0.203305  Min(alpha.water) = -2.80899e-83  Max(alpha.water) = 1
--> FOAM Warning : 
    From void Foam::lduMatrix::operator-=(const Foam::lduMatrix&)
    in file matrices/lduMatrix/lduMatrix/lduMatrixOperations.C at line 290
    Unknown matrix type combination
    this : asymmetric    A    : empty
   Normalisation factor = 0.470956
DICPCG:  Solving for p_rgh, Initial residual = 9.17156e-05, Final residual = 8.79804e-07, No Iterations 6
   Normalisation factor = 0.470942
DICPCG:  Solving for p_rgh, Initial residual = 8.79829e-07, Final residual = 8.07122e-09, No Iterations 112
   Normalisation factor = 0.470939
DICPCG:  Solving for p_rgh, Initial residual = 8.07127e-09, Final residual = 9.92531e-10, No Iterations 31
   Normalisation factor = 0.470939
DICPCG:  Solving for p_rgh, Initial residual = 9.92531e-10, Final residual = 9.92531e-10, No Iterations 0
time step continuity errors : sum local = 2.20274e-11, global = 1.23607e-12, cumulative = 8.76174e-13
   Normalisation factor = 0.470939
DICPCG:  Solving for p_rgh, Initial residual = 1.39328e-08, Final residual = 9.76587e-10, No Iterations 9
   Normalisation factor = 0.470939
DICPCG:  Solving for p_rgh, Initial residual = 9.76587e-10, Final residual = 9.76587e-10, No Iterations 0
   Normalisation factor = 0.470939
DICPCG:  Solving for p_rgh, Initial residual = 9.76587e-10, Final residual = 9.76587e-10, No Iterations 0
   Normalisation factor = 0.470939
DICPCG:  Solving for p_rgh, Initial residual = 9.76587e-10, Final residual = 9.76587e-10, No Iterations 0
time step continuity errors : sum local = 2.16735e-11, global = -4.6571e-13, cumulative = 4.10464e-13
   Normalisation factor = 0.470939
DICPCG:  Solving for p_rgh, Initial residual = 9.76131e-10, Final residual = 9.76131e-10, No Iterations 0
   Normalisation factor = 0.470939
DICPCG:  Solving for p_rgh, Initial residual = 9.76131e-10, Final residual = 9.76131e-10, No Iterations 0
   Normalisation factor = 0.470939
DICPCG:  Solving for p_rgh, Initial residual = 9.76131e-10, Final residual = 9.76131e-10, No Iterations 0
   Normalisation factor = 0.470939
DICPCG:  Solving for p_rgh, Initial residual = 9.76131e-10, Final residual = 9.76131e-10, No Iterations 0
time step continuity errors : sum local = 2.16634e-11, global = -4.66914e-13, cumulative = -5.64502e-14
PIMPLE: iteration 3
--> FOAM Warning : 
    From Foam::labelHashSet Foam::polyBoundaryMesh::patchSet(const Foam::UList<Foam::wordRe>&, bool, bool) const
    in file meshes/polyMesh/polyBoundaryMesh/polyBoundaryMesh.C at line 1098
    Cannot find any patch or group names matching paddle
--> FOAM Warning : 
    From Foam::labelHashSet Foam::polyBoundaryMesh::patchSet(const Foam::UList<Foam::wordRe>&, bool, bool) const
    in file meshes/polyMesh/polyBoundaryMesh/polyBoundaryMesh.C at line 1098
    Cannot find any patch or group names matching flumeFloor
--> FOAM Warning : 
    From void Foam::lduMatrix::operator-=(const Foam::lduMatrix&)
    in file matrices/lduMatrix/lduMatrix/lduMatrixOperations.C at line 290
    Unknown matrix type combination
    this : symmetric    A    : empty
   Normalisation factor = 1e-20
DICPCG:  Solving for cellDisplacementx, Initial residual = 0, Final residual = 0, No Iterations 0
   Normalisation factor = 1e-20
DICPCG:  Solving for cellDisplacementy, Initial residual = 0, Final residual = 0, No Iterations 0
   Normalisation factor = 1e-20
DICPCG:  Solving for cellDisplacementz, Initial residual = 0, Final residual = 0, No Iterations 0
   Normalisation factor = 15.3309
smoothSolver:  Solving for alpha.water, Initial residual = 6.78033e-08, Final residual = 8.0982e-16, No Iterations 1
Phase-1 volume fraction = 0.203305  Min(alpha.water) = 0  Max(alpha.water) = 1
MULES: Correcting alpha.water
MULES: Correcting alpha.water
Phase-1 volume fraction = 0.203305  Min(alpha.water) = -1.94562e-71  Max(alpha.water) = 1
--> FOAM Warning : 
    From void Foam::lduMatrix::operator-=(const Foam::lduMatrix&)
    in file matrices/lduMatrix/lduMatrix/lduMatrixOperations.C at line 290
    Unknown matrix type combination
    this : asymmetric    A    : empty
   Normalisation factor = 0.471386
DICPCG:  Solving for p_rgh, Initial residual = 1.01944e-05, Final residual = 8.8346e-08, No Iterations 11
   Normalisation factor = 0.471387
DICPCG:  Solving for p_rgh, Initial residual = 8.83457e-08, Final residual = 8.33537e-10, No Iterations 113
   Normalisation factor = 0.471388
DICPCG:  Solving for p_rgh, Initial residual = 8.33535e-10, Final residual = 8.33535e-10, No Iterations 0
   Normalisation factor = 0.471388
DICPCG:  Solving for p_rgh, Initial residual = 8.33535e-10, Final residual = 8.33535e-10, No Iterations 0
time step continuity errors : sum local = 1.85164e-11, global = 3.93196e-13, cumulative = 3.36746e-13
   Normalisation factor = 0.471388
DICPCG:  Solving for p_rgh, Initial residual = 2.13399e-09, Final residual = 5.79633e-10, No Iterations 1
   Normalisation factor = 0.471388
DICPCG:  Solving for p_rgh, Initial residual = 5.79633e-10, Final residual = 5.79633e-10, No Iterations 0
   Normalisation factor = 0.471388
DICPCG:  Solving for p_rgh, Initial residual = 5.79633e-10, Final residual = 5.79633e-10, No Iterations 0
   Normalisation factor = 0.471388
DICPCG:  Solving for p_rgh, Initial residual = 5.79633e-10, Final residual = 5.79633e-10, No Iterations 0
time step continuity errors : sum local = 1.28761e-11, global = 3.83534e-13, cumulative = 7.2028e-13
   Normalisation factor = 0.471388
DICPCG:  Solving for p_rgh, Initial residual = 5.80081e-10, Final residual = 5.80081e-10, No Iterations 0
   Normalisation factor = 0.471388
DICPCG:  Solving for p_rgh, Initial residual = 5.80081e-10, Final residual = 5.80081e-10, No Iterations 0
   Normalisation factor = 0.471388
DICPCG:  Solving for p_rgh, Initial residual = 5.80081e-10, Final residual = 5.80081e-10, No Iterations 0
   Normalisation factor = 0.471388
DICPCG:  Solving for p_rgh, Initial residual = 5.80081e-10, Final residual = 5.80081e-10, No Iterations 0
time step continuity errors : sum local = 1.28861e-11, global = 3.83567e-13, cumulative = 1.10385e-12
PIMPLE: iteration 4
--> FOAM Warning : 
    From Foam::labelHashSet Foam::polyBoundaryMesh::patchSet(const Foam::UList<Foam::wordRe>&, bool, bool) const
    in file meshes/polyMesh/polyBoundaryMesh/polyBoundaryMesh.C at line 1098
    Cannot find any patch or group names matching paddle
--> FOAM Warning : 
    From Foam::labelHashSet Foam::polyBoundaryMesh::patchSet(const Foam::UList<Foam::wordRe>&, bool, bool) const
    in file meshes/polyMesh/polyBoundaryMesh/polyBoundaryMesh.C at line 1098
    Cannot find any patch or group names matching flumeFloor
--> FOAM Warning : 
    From void Foam::lduMatrix::operator-=(const Foam::lduMatrix&)
    in file matrices/lduMatrix/lduMatrix/lduMatrixOperations.C at line 290
    Unknown matrix type combination
    this : symmetric    A    : empty
   Normalisation factor = 1e-20
DICPCG:  Solving for cellDisplacementx, Initial residual = 0, Final residual = 0, No Iterations 0
   Normalisation factor = 1e-20
DICPCG:  Solving for cellDisplacementy, Initial residual = 0, Final residual = 0, No Iterations 0
   Normalisation factor = 1e-20
DICPCG:  Solving for cellDisplacementz, Initial residual = 0, Final residual = 0, No Iterations 0
   Normalisation factor = 15.3309
smoothSolver:  Solving for alpha.water, Initial residual = 6.20117e-09, Final residual = 1.00218e-16, No Iterations 1
Phase-1 volume fraction = 0.203305  Min(alpha.water) = 0  Max(alpha.water) = 1
MULES: Correcting alpha.water
MULES: Correcting alpha.water
Phase-1 volume fraction = 0.203305  Min(alpha.water) = -2.98251e-97  Max(alpha.water) = 1
--> FOAM Warning : 
    From void Foam::lduMatrix::operator-=(const Foam::lduMatrix&)
    in file matrices/lduMatrix/lduMatrix/lduMatrixOperations.C at line 290
    Unknown matrix type combination
    this : asymmetric    A    : empty
   Normalisation factor = 0.47135
DICPCG:  Solving for p_rgh, Initial residual = 8.01435e-07, Final residual = 7.95998e-09, No Iterations 5
   Normalisation factor = 0.47135
DICPCG:  Solving for p_rgh, Initial residual = 7.95998e-09, Final residual = 8.09867e-10, No Iterations 15
   Normalisation factor = 0.47135
DICPCG:  Solving for p_rgh, Initial residual = 8.09867e-10, Final residual = 8.09867e-10, No Iterations 0
   Normalisation factor = 0.47135
DICPCG:  Solving for p_rgh, Initial residual = 8.09867e-10, Final residual = 8.09867e-10, No Iterations 0
time step continuity errors : sum local = 1.79892e-11, global = 1.73342e-12, cumulative = 2.83727e-12
   Normalisation factor = 0.47135
DICPCG:  Solving for p_rgh, Initial residual = 8.88948e-10, Final residual = 8.88948e-10, No Iterations 0
   Normalisation factor = 0.47135
DICPCG:  Solving for p_rgh, Initial residual = 8.88948e-10, Final residual = 8.88948e-10, No Iterations 0
   Normalisation factor = 0.47135
DICPCG:  Solving for p_rgh, Initial residual = 8.88948e-10, Final residual = 8.88948e-10, No Iterations 0
   Normalisation factor = 0.47135
DICPCG:  Solving for p_rgh, Initial residual = 8.88948e-10, Final residual = 8.88948e-10, No Iterations 0
time step continuity errors : sum local = 1.97458e-11, global = 1.73317e-12, cumulative = 4.57044e-12
   Normalisation factor = 0.47135
DICPCG:  Solving for p_rgh, Initial residual = 8.89021e-10, Final residual = 8.89021e-10, No Iterations 0
   Normalisation factor = 0.47135
DICPCG:  Solving for p_rgh, Initial residual = 8.89021e-10, Final residual = 8.89021e-10, No Iterations 0
   Normalisation factor = 0.47135
DICPCG:  Solving for p_rgh, Initial residual = 8.89021e-10, Final residual = 8.89021e-10, No Iterations 0
   Normalisation factor = 0.47135
DICPCG:  Solving for p_rgh, Initial residual = 8.89021e-10, Final residual = 8.89021e-10, No Iterations 0
time step continuity errors : sum local = 1.97474e-11, global = 1.73317e-12, cumulative = 6.30361e-12
PIMPLE: iteration 5
--> FOAM Warning : 
    From Foam::labelHashSet Foam::polyBoundaryMesh::patchSet(const Foam::UList<Foam::wordRe>&, bool, bool) const
    in file meshes/polyMesh/polyBoundaryMesh/polyBoundaryMesh.C at line 1098
    Cannot find any patch or group names matching paddle
--> FOAM Warning : 
    From Foam::labelHashSet Foam::polyBoundaryMesh::patchSet(const Foam::UList<Foam::wordRe>&, bool, bool) const
    in file meshes/polyMesh/polyBoundaryMesh/polyBoundaryMesh.C at line 1098
    Cannot find any patch or group names matching flumeFloor
--> FOAM Warning : 
    From void Foam::lduMatrix::operator-=(const Foam::lduMatrix&)
    in file matrices/lduMatrix/lduMatrix/lduMatrixOperations.C at line 290
    Unknown matrix type combination
    this : symmetric    A    : empty
   Normalisation factor = 1e-20
DICPCG:  Solving for cellDisplacementx, Initial residual = 0, Final residual = 0, No Iterations 0
   Normalisation factor = 1e-20
DICPCG:  Solving for cellDisplacementy, Initial residual = 0, Final residual = 0, No Iterations 0
   Normalisation factor = 1e-20
DICPCG:  Solving for cellDisplacementz, Initial residual = 0, Final residual = 0, No Iterations 0
   Normalisation factor = 15.3309
smoothSolver:  Solving for alpha.water, Initial residual = 6.26247e-10, Final residual = 2.79502e-17, No Iterations 1
Phase-1 volume fraction = 0.203305  Min(alpha.water) = 0  Max(alpha.water) = 1
MULES: Correcting alpha.water
MULES: Correcting alpha.water
Phase-1 volume fraction = 0.203305  Min(alpha.water) = -1.53187e-70  Max(alpha.water) = 1
--> FOAM Warning : 
    From void Foam::lduMatrix::operator-=(const Foam::lduMatrix&)
    in file matrices/lduMatrix/lduMatrix/lduMatrixOperations.C at line 290
    Unknown matrix type combination
    this : asymmetric    A    : empty
   Normalisation factor = 0.471354
DICPCG:  Solving for p_rgh, Initial residual = 8.75947e-08, Final residual = 9.02721e-10, No Iterations 14
   Normalisation factor = 0.471354
DICPCG:  Solving for p_rgh, Initial residual = 9.02721e-10, Final residual = 9.02721e-10, No Iterations 0
   Normalisation factor = 0.471354
DICPCG:  Solving for p_rgh, Initial residual = 9.02721e-10, Final residual = 9.02721e-10, No Iterations 0
   Normalisation factor = 0.471354
DICPCG:  Solving for p_rgh, Initial residual = 9.02721e-10, Final residual = 9.02721e-10, No Iterations 0
time step continuity errors : sum local = 2.00519e-11, global = -2.77397e-12, cumulative = 3.52963e-12
   Normalisation factor = 0.471354
DICPCG:  Solving for p_rgh, Initial residual = 9.06608e-10, Final residual = 9.06608e-10, No Iterations 0
   Normalisation factor = 0.471354
DICPCG:  Solving for p_rgh, Initial residual = 9.06608e-10, Final residual = 9.06608e-10, No Iterations 0
   Normalisation factor = 0.471354
DICPCG:  Solving for p_rgh, Initial residual = 9.06608e-10, Final residual = 9.06608e-10, No Iterations 0
   Normalisation factor = 0.471354
DICPCG:  Solving for p_rgh, Initial residual = 9.06608e-10, Final residual = 9.06608e-10, No Iterations 0
time step continuity errors : sum local = 2.01382e-11, global = -2.77642e-12, cumulative = 7.53216e-13
   Normalisation factor = 0.471354
DICPCG:  Solving for p_rgh, Initial residual = 9.06608e-10, Final residual = 9.06608e-10, No Iterations 0
   Normalisation factor = 0.471354
DICPCG:  Solving for p_rgh, Initial residual = 9.06608e-10, Final residual = 9.06608e-10, No Iterations 0
   Normalisation factor = 0.471354
DICPCG:  Solving for p_rgh, Initial residual = 9.06608e-10, Final residual = 9.06608e-10, No Iterations 0
   Normalisation factor = 0.471354
DICPCG:  Solving for p_rgh, Initial residual = 9.06608e-10, Final residual = 9.06608e-10, No Iterations 0
time step continuity errors : sum local = 2.01382e-11, global = -2.77642e-12, cumulative = -2.0232e-12
ExecutionTime = 1.63 s  ClockTime = 2 s

(0) 22:52:23 [impl::DataContext]:135 in mapData: [0mMapping "Force" for t=0.0001 from "OpenFOAM-Mesh" to "Coupling-Data-Projection-Mesh"
(0) 22:52:23 [cplscheme::BaseCouplingScheme]:399 in secondExchange: [0mTime window completed
(0) 22:52:23 [impl::DataContext]:135 in mapData: [0mMapping "Displacement" for t=0.0001 from "Coupling-Data-Projection-Mesh" to "OpenFOAM-Mesh"
(0) 22:52:23 [impl::ParticipantImpl]:422 in advance: [0miteration: 1, time-window: 2, time: 0.0001 of 1, time-window-size: 0.0001, max-time-step-size: 0.0001, ongoing: yes, time-window-complete: yes, 
--> FOAM Warning : 
    From void adapterInfo(std::string, std::string)
    in file Utilities.C at line 17
    [36mWarning in the preCICE adapter: [0m
The solver's timestep cannot be larger than the coupling timestep. Adjusting from 0.000500 to 0.000100

forces interface write:
    Sum of forces
        Total    : (0.0012981 -0.000563833 3.21182e-14)
        Pressure : (0.00129451 -0.00057449 0)
        Viscous  : (3.58281e-06 1.06579e-05 3.21182e-14)
    Sum of moments
        Total    : (2.81916e-06 6.49048e-06 5.94539e-06)
        Pressure : (2.87245e-06 6.47256e-06 6.14857e-06)
        Viscous  : (-5.32896e-08 1.7914e-08 -2.03177e-07)
    writing force and moment files.

forces baseForces write:
    Sum of forces
        Total    : (0.0012981 -0.000563833 3.21182e-14)
        Pressure : (0.00129451 -0.00057449 0)
        Viscous  : (3.58281e-06 1.06579e-05 3.21182e-14)
    Sum of moments
        Total    : (2.81916e-06 6.49048e-06 5.94539e-06)
        Pressure : (2.87245e-06 6.47256e-06 6.14857e-06)
        Viscous  : (-5.32896e-08 1.7914e-08 -2.03177e-07)
    writing force and moment files.

forces storyForces write:
    Sum of forces
        Total    : (0.0012981 -0.000563833 3.21182e-14)
        Pressure : (0.00129451 -0.00057449 0)
        Viscous  : (3.58281e-06 1.06579e-05 3.21182e-14)
    Sum of moments
        Total    : (2.81916e-06 6.49048e-06 5.94539e-06)
        Pressure : (2.87245e-06 6.47256e-06 6.14857e-06)
        Viscous  : (-5.32896e-08 1.7914e-08 -2.03177e-07)
    writing force and moment files.

Courant Number mean: 2.88581e-05 max: 0.00196363
Interface Courant Number mean: 0 max: 0
Time = 0.0002

PIMPLE: iteration 1
--> FOAM Warning : 
    From Foam::labelHashSet Foam::polyBoundaryMesh::patchSet(const Foam::UList<Foam::wordRe>&, bool, bool) const
    in file meshes/polyMesh/polyBoundaryMesh/polyBoundaryMesh.C at line 1098
    Cannot find any patch or group names matching paddle
--> FOAM Warning : 
    From Foam::labelHashSet Foam::polyBoundaryMesh::patchSet(const Foam::UList<Foam::wordRe>&, bool, bool) const
    in file meshes/polyMesh/polyBoundaryMesh/polyBoundaryMesh.C at line 1098
    Cannot find any patch or group names matching flumeFloor
--> FOAM Warning : 
    From void Foam::lduMatrix::operator-=(const Foam::lduMatrix&)
    in file matrices/lduMatrix/lduMatrix/lduMatrixOperations.C at line 290
    Unknown matrix type combination
    this : symmetric    A    : empty
   Normalisation factor = 1e-20
DICPCG:  Solving for cellDisplacementx, Initial residual = 0, Final residual = 0, No Iterations 0
   Normalisation factor = 1e-20
DICPCG:  Solving for cellDisplacementy, Initial residual = 0, Final residual = 0, No Iterations 0
   Normalisation factor = 1e-20
DICPCG:  Solving for cellDisplacementz, Initial residual = 0, Final residual = 0, No Iterations 0
   Normalisation factor = 15.3309
smoothSolver:  Solving for alpha.water, Initial residual = 8.06959e-07, Final residual = 6.18741e-15, No Iterations 1
Phase-1 volume fraction = 0.203305  Min(alpha.water) = 0  Max(alpha.water) = 1
MULES: Correcting alpha.water
MULES: Correcting alpha.water
Phase-1 volume fraction = 0.203305  Min(alpha.water) = -1.24961e-82  Max(alpha.water) = 1
--> FOAM Warning : 
    From void Foam::lduMatrix::operator-=(const Foam::lduMatrix&)
    in file matrices/lduMatrix/lduMatrix/lduMatrixOperations.C at line 290
    Unknown matrix type combination
    this : asymmetric    A    : empty
   Normalisation factor = 0.465705
DICPCG:  Solving for p_rgh, Initial residual = 9.19837e-05, Final residual = 8.51022e-07, No Iterations 34
   Normalisation factor = 0.465764
DICPCG:  Solving for p_rgh, Initial residual = 8.50914e-07, Final residual = 6.95559e-09, No Iterations 114
   Normalisation factor = 0.465766
DICPCG:  Solving for p_rgh, Initial residual = 6.95556e-09, Final residual = 9.96452e-10, No Iterations 26
   Normalisation factor = 0.465766
DICPCG:  Solving for p_rgh, Initial residual = 9.96452e-10, Final residual = 9.96452e-10, No Iterations 0
time step continuity errors : sum local = 2.18715e-11, global = 4.57206e-13, cumulative = -1.566e-12
   Normalisation factor = 0.465766
DICPCG:  Solving for p_rgh, Initial residual = 3.49287e-07, Final residual = 3.39639e-09, No Iterations 80
   Normalisation factor = 0.465764
DICPCG:  Solving for p_rgh, Initial residual = 3.3964e-09, Final residual = 9.20598e-10, No Iterations 47
   Normalisation factor = 0.465765
DICPCG:  Solving for p_rgh, Initial residual = 9.20598e-10, Final residual = 9.20598e-10, No Iterations 0
   Normalisation factor = 0.465765
DICPCG:  Solving for p_rgh, Initial residual = 9.20598e-10, Final residual = 9.20598e-10, No Iterations 0
time step continuity errors : sum local = 2.02065e-11, global = -2.40335e-12, cumulative = -3.96935e-12
   Normalisation factor = 0.465765
DICPCG:  Solving for p_rgh, Initial residual = 1.13033e-09, Final residual = 6.39943e-10, No Iterations 1
   Normalisation factor = 0.465765
DICPCG:  Solving for p_rgh, Initial residual = 6.39943e-10, Final residual = 6.39943e-10, No Iterations 0
   Normalisation factor = 0.465765
DICPCG:  Solving for p_rgh, Initial residual = 6.39943e-10, Final residual = 6.39943e-10, No Iterations 0
   Normalisation factor = 0.465765
DICPCG:  Solving for p_rgh, Initial residual = 6.39943e-10, Final residual = 6.39943e-10, No Iterations 0
time step continuity errors : sum local = 1.40463e-11, global = -2.35868e-12, cumulative = -6.32803e-12
PIMPLE: iteration 2
--> FOAM Warning : 
    From Foam::labelHashSet Foam::polyBoundaryMesh::patchSet(const Foam::UList<Foam::wordRe>&, bool, bool) const
    in file meshes/polyMesh/polyBoundaryMesh/polyBoundaryMesh.C at line 1098
    Cannot find any patch or group names matching paddle
--> FOAM Warning : 
    From Foam::labelHashSet Foam::polyBoundaryMesh::patchSet(const Foam::UList<Foam::wordRe>&, bool, bool) const
    in file meshes/polyMesh/polyBoundaryMesh/polyBoundaryMesh.C at line 1098
    Cannot find any patch or group names matching flumeFloor
--> FOAM Warning : 
    From void Foam::lduMatrix::operator-=(const Foam::lduMatrix&)
    in file matrices/lduMatrix/lduMatrix/lduMatrixOperations.C at line 290
    Unknown matrix type combination
    this : symmetric    A    : empty
   Normalisation factor = 1e-20
DICPCG:  Solving for cellDisplacementx, Initial residual = 0, Final residual = 0, No Iterations 0
   Normalisation factor = 1e-20
DICPCG:  Solving for cellDisplacementy, Initial residual = 0, Final residual = 0, No Iterations 0
   Normalisation factor = 1e-20
DICPCG:  Solving for cellDisplacementz, Initial residual = 0, Final residual = 0, No Iterations 0
   Normalisation factor = 15.3309
smoothSolver:  Solving for alpha.water, Initial residual = 6.40838e-07, Final residual = 1.01044e-14, No Iterations 1
Phase-1 volume fraction = 0.203305  Min(alpha.water) = 0  Max(alpha.water) = 1
MULES: Correcting alpha.water
MULES: Correcting alpha.water
Phase-1 volume fraction = 0.203305  Min(alpha.water) = -9.9325e-72  Max(alpha.water) = 1
--> FOAM Warning : 
    From void Foam::lduMatrix::operator-=(const Foam::lduMatrix&)
    in file matrices/lduMatrix/lduMatrix/lduMatrixOperations.C at line 290
    Unknown matrix type combination
    this : asymmetric    A    : empty
   Normalisation factor = 0.461663
DICPCG:  Solving for p_rgh, Initial residual = 4.98844e-05, Final residual = 4.7613e-07, No Iterations 10
   Normalisation factor = 0.461657
DICPCG:  Solving for p_rgh, Initial residual = 4.76136e-07, Final residual = 3.99192e-09, No Iterations 92
   Normalisation factor = 0.461655
DICPCG:  Solving for p_rgh, Initial residual = 3.99194e-09, Final residual = 9.89585e-10, No Iterations 25
   Normalisation factor = 0.461655
DICPCG:  Solving for p_rgh, Initial residual = 9.89585e-10, Final residual = 9.89585e-10, No Iterations 0
time step continuity errors : sum local = 2.15291e-11, global = -2.72938e-15, cumulative = -6.33076e-12
   Normalisation factor = 0.461655
DICPCG:  Solving for p_rgh, Initial residual = 1.05419e-08, Final residual = 9.32358e-10, No Iterations 5
   Normalisation factor = 0.461655
DICPCG:  Solving for p_rgh, Initial residual = 9.32358e-10, Final residual = 9.32358e-10, No Iterations 0
   Normalisation factor = 0.461655
DICPCG:  Solving for p_rgh, Initial residual = 9.32358e-10, Final residual = 9.32358e-10, No Iterations 0
   Normalisation factor = 0.461655
DICPCG:  Solving for p_rgh, Initial residual = 9.32358e-10, Final residual = 9.32358e-10, No Iterations 0
time step continuity errors : sum local = 2.02841e-11, global = -2.03661e-14, cumulative = -6.35112e-12
   Normalisation factor = 0.461655
DICPCG:  Solving for p_rgh, Initial residual = 9.37109e-10, Final residual = 9.37109e-10, No Iterations 0
   Normalisation factor = 0.461655
DICPCG:  Solving for p_rgh, Initial residual = 9.37109e-10, Final residual = 9.37109e-10, No Iterations 0
   Normalisation factor = 0.461655
DICPCG:  Solving for p_rgh, Initial residual = 9.37109e-10, Final residual = 9.37109e-10, No Iterations 0
   Normalisation factor = 0.461655
DICPCG:  Solving for p_rgh, Initial residual = 9.37109e-10, Final residual = 9.37109e-10, No Iterations 0
time step continuity errors : sum local = 2.03874e-11, global = -2.05571e-14, cumulative = -6.37168e-12
PIMPLE: iteration 3
--> FOAM Warning : 
    From Foam::labelHashSet Foam::polyBoundaryMesh::patchSet(const Foam::UList<Foam::wordRe>&, bool, bool) const
    in file meshes/polyMesh/polyBoundaryMesh/polyBoundaryMesh.C at line 1098
    Cannot find any patch or group names matching paddle
--> FOAM Warning : 
    From Foam::labelHashSet Foam::polyBoundaryMesh::patchSet(const Foam::UList<Foam::wordRe>&, bool, bool) const
    in file meshes/polyMesh/polyBoundaryMesh/polyBoundaryMesh.C at line 1098
    Cannot find any patch or group names matching flumeFloor
--> FOAM Warning : 
    From void Foam::lduMatrix::operator-=(const Foam::lduMatrix&)
    in file matrices/lduMatrix/lduMatrix/lduMatrixOperations.C at line 290
    Unknown matrix type combination
    this : symmetric    A    : empty
   Normalisation factor = 1e-20
DICPCG:  Solving for cellDisplacementx, Initial residual = 0, Final residual = 0, No Iterations 0
   Normalisation factor = 1e-20
DICPCG:  Solving for cellDisplacementy, Initial residual = 0, Final residual = 0, No Iterations 0
   Normalisation factor = 1e-20
DICPCG:  Solving for cellDisplacementz, Initial residual = 0, Final residual = 0, No Iterations 0
   Normalisation factor = 15.3309
smoothSolver:  Solving for alpha.water, Initial residual = 2.92029e-08, Final residual = 1.03205e-15, No Iterations 1
Phase-1 volume fraction = 0.203305  Min(alpha.water) = 0  Max(alpha.water) = 1
MULES: Correcting alpha.water
MULES: Correcting alpha.water
Phase-1 volume fraction = 0.203305  Min(alpha.water) = -1.52726e-71  Max(alpha.water) = 1
--> FOAM Warning : 
    From void Foam::lduMatrix::operator-=(const Foam::lduMatrix&)
    in file matrices/lduMatrix/lduMatrix/lduMatrixOperations.C at line 290
    Unknown matrix type combination
    this : asymmetric    A    : empty
   Normalisation factor = 0.461707
DICPCG:  Solving for p_rgh, Initial residual = 3.53387e-06, Final residual = 3.14538e-08, No Iterations 11
   Normalisation factor = 0.461708
DICPCG:  Solving for p_rgh, Initial residual = 3.14538e-08, Final residual = 9.06616e-10, No Iterations 103
   Normalisation factor = 0.461708
DICPCG:  Solving for p_rgh, Initial residual = 9.06616e-10, Final residual = 9.06616e-10, No Iterations 0
   Normalisation factor = 0.461708
DICPCG:  Solving for p_rgh, Initial residual = 9.06616e-10, Final residual = 9.06616e-10, No Iterations 0
time step continuity errors : sum local = 1.97263e-11, global = 5.24951e-13, cumulative = -5.84673e-12
   Normalisation factor = 0.461708
DICPCG:  Solving for p_rgh, Initial residual = 1.71098e-09, Final residual = 5.77982e-10, No Iterations 1
   Normalisation factor = 0.461708
DICPCG:  Solving for p_rgh, Initial residual = 5.77982e-10, Final residual = 5.77982e-10, No Iterations 0
   Normalisation factor = 0.461708
DICPCG:  Solving for p_rgh, Initial residual = 5.77982e-10, Final residual = 5.77982e-10, No Iterations 0
   Normalisation factor = 0.461708
DICPCG:  Solving for p_rgh, Initial residual = 5.77982e-10, Final residual = 5.77982e-10, No Iterations 0
time step continuity errors : sum local = 1.25758e-11, global = 5.15316e-13, cumulative = -5.33141e-12
   Normalisation factor = 0.461708
DICPCG:  Solving for p_rgh, Initial residual = 5.78616e-10, Final residual = 5.78616e-10, No Iterations 0
   Normalisation factor = 0.461708
DICPCG:  Solving for p_rgh, Initial residual = 5.78616e-10, Final residual = 5.78616e-10, No Iterations 0
   Normalisation factor = 0.461708
DICPCG:  Solving for p_rgh, Initial residual = 5.78616e-10, Final residual = 5.78616e-10, No Iterations 0
   Normalisation factor = 0.461708
DICPCG:  Solving for p_rgh, Initial residual = 5.78616e-10, Final residual = 5.78616e-10, No Iterations 0
time step continuity errors : sum local = 1.25896e-11, global = 5.15331e-13, cumulative = -4.81608e-12
PIMPLE: iteration 4
--> FOAM Warning : 
    From Foam::labelHashSet Foam::polyBoundaryMesh::patchSet(const Foam::UList<Foam::wordRe>&, bool, bool) const
    in file meshes/polyMesh/polyBoundaryMesh/polyBoundaryMesh.C at line 1098
    Cannot find any patch or group names matching paddle
--> FOAM Warning : 
    From Foam::labelHashSet Foam::polyBoundaryMesh::patchSet(const Foam::UList<Foam::wordRe>&, bool, bool) const
    in file meshes/polyMesh/polyBoundaryMesh/polyBoundaryMesh.C at line 1098
    Cannot find any patch or group names matching flumeFloor
--> FOAM Warning : 
    From void Foam::lduMatrix::operator-=(const Foam::lduMatrix&)
    in file matrices/lduMatrix/lduMatrix/lduMatrixOperations.C at line 290
    Unknown matrix type combination
    this : symmetric    A    : empty
   Normalisation factor = 1e-20
DICPCG:  Solving for cellDisplacementx, Initial residual = 0, Final residual = 0, No Iterations 0
   Normalisation factor = 1e-20
DICPCG:  Solving for cellDisplacementy, Initial residual = 0, Final residual = 0, No Iterations 0
   Normalisation factor = 1e-20
DICPCG:  Solving for cellDisplacementz, Initial residual = 0, Final residual = 0, No Iterations 0
   Normalisation factor = 15.3309
smoothSolver:  Solving for alpha.water, Initial residual = 5.9493e-09, Final residual = 1.58385e-16, No Iterations 1
Phase-1 volume fraction = 0.203305  Min(alpha.water) = 0  Max(alpha.water) = 1
MULES: Correcting alpha.water
MULES: Correcting alpha.water
Phase-1 volume fraction = 0.203305  Min(alpha.water) = -1.41775e-71  Max(alpha.water) = 1
--> FOAM Warning : 
    From void Foam::lduMatrix::operator-=(const Foam::lduMatrix&)
    in file matrices/lduMatrix/lduMatrix/lduMatrixOperations.C at line 290
    Unknown matrix type combination
    this : asymmetric    A    : empty
   Normalisation factor = 0.461704
DICPCG:  Solving for p_rgh, Initial residual = 2.89669e-07, Final residual = 2.48795e-09, No Iterations 11
   Normalisation factor = 0.461704
DICPCG:  Solving for p_rgh, Initial residual = 2.48795e-09, Final residual = 9.86346e-10, No Iterations 26
   Normalisation factor = 0.461704
DICPCG:  Solving for p_rgh, Initial residual = 9.86346e-10, Final residual = 9.86346e-10, No Iterations 0
   Normalisation factor = 0.461704
DICPCG:  Solving for p_rgh, Initial residual = 9.86346e-10, Final residual = 9.86346e-10, No Iterations 0
time step continuity errors : sum local = 2.14609e-11, global = 3.35344e-12, cumulative = -1.46265e-12
   Normalisation factor = 0.461704
DICPCG:  Solving for p_rgh, Initial residual = 1.04825e-09, Final residual = 5.82644e-10, No Iterations 1
   Normalisation factor = 0.461704
DICPCG:  Solving for p_rgh, Initial residual = 5.82644e-10, Final residual = 5.82644e-10, No Iterations 0
   Normalisation factor = 0.461704
DICPCG:  Solving for p_rgh, Initial residual = 5.82644e-10, Final residual = 5.82644e-10, No Iterations 0
   Normalisation factor = 0.461704
DICPCG:  Solving for p_rgh, Initial residual = 5.82644e-10, Final residual = 5.82644e-10, No Iterations 0
time step continuity errors : sum local = 1.26771e-11, global = 3.36455e-12, cumulative = 1.9019e-12
   Normalisation factor = 0.461704
DICPCG:  Solving for p_rgh, Initial residual = 5.82536e-10, Final residual = 5.82536e-10, No Iterations 0
   Normalisation factor = 0.461704
DICPCG:  Solving for p_rgh, Initial residual = 5.82536e-10, Final residual = 5.82536e-10, No Iterations 0
   Normalisation factor = 0.461704
DICPCG:  Solving for p_rgh, Initial residual = 5.82536e-10, Final residual = 5.82536e-10, No Iterations 0
   Normalisation factor = 0.461704
DICPCG:  Solving for p_rgh, Initial residual = 5.82536e-10, Final residual = 5.82536e-10, No Iterations 0
time step continuity errors : sum local = 1.26748e-11, global = 3.36456e-12, cumulative = 5.26646e-12
PIMPLE: iteration 5
--> FOAM Warning : 
    From Foam::labelHashSet Foam::polyBoundaryMesh::patchSet(const Foam::UList<Foam::wordRe>&, bool, bool) const
    in file meshes/polyMesh/polyBoundaryMesh/polyBoundaryMesh.C at line 1098
    Cannot find any patch or group names matching paddle
--> FOAM Warning : 
    From Foam::labelHashSet Foam::polyBoundaryMesh::patchSet(const Foam::UList<Foam::wordRe>&, bool, bool) const
    in file meshes/polyMesh/polyBoundaryMesh/polyBoundaryMesh.C at line 1098
    Cannot find any patch or group names matching flumeFloor
--> FOAM Warning : 
    From void Foam::lduMatrix::operator-=(const Foam::lduMatrix&)
    in file matrices/lduMatrix/lduMatrix/lduMatrixOperations.C at line 290
    Unknown matrix type combination
    this : symmetric    A    : empty
   Normalisation factor = 1e-20
DICPCG:  Solving for cellDisplacementx, Initial residual = 0, Final residual = 0, No Iterations 0
   Normalisation factor = 1e-20
DICPCG:  Solving for cellDisplacementy, Initial residual = 0, Final residual = 0, No Iterations 0
   Normalisation factor = 1e-20
DICPCG:  Solving for cellDisplacementz, Initial residual = 0, Final residual = 0, No Iterations 0
   Normalisation factor = 15.3309
smoothSolver:  Solving for alpha.water, Initial residual = 3.28923e-09, Final residual = 6.40455e-17, No Iterations 1
Phase-1 volume fraction = 0.203305  Min(alpha.water) = 0  Max(alpha.water) = 1
MULES: Correcting alpha.water
MULES: Correcting alpha.water
Phase-1 volume fraction = 0.203305  Min(alpha.water) = -1.42612e-71  Max(alpha.water) = 1
--> FOAM Warning : 
    From void Foam::lduMatrix::operator-=(const Foam::lduMatrix&)
    in file matrices/lduMatrix/lduMatrix/lduMatrixOperations.C at line 290
    Unknown matrix type combination
    this : asymmetric    A    : empty
   Normalisation factor = 0.461704
DICPCG:  Solving for p_rgh, Initial residual = 2.80147e-08, Final residual = 9.1068e-10, No Iterations 3
   Normalisation factor = 0.461704
DICPCG:  Solving for p_rgh, Initial residual = 9.1068e-10, Final residual = 9.1068e-10, No Iterations 0
   Normalisation factor = 0.461704
DICPCG:  Solving for p_rgh, Initial residual = 9.1068e-10, Final residual = 9.1068e-10, No Iterations 0
   Normalisation factor = 0.461704
DICPCG:  Solving for p_rgh, Initial residual = 9.1068e-10, Final residual = 9.1068e-10, No Iterations 0
time step continuity errors : sum local = 1.98145e-11, global = 3.38704e-12, cumulative = 8.6535e-12
   Normalisation factor = 0.461704
DICPCG:  Solving for p_rgh, Initial residual = 9.09415e-10, Final residual = 9.09415e-10, No Iterations 0
   Normalisation factor = 0.461704
DICPCG:  Solving for p_rgh, Initial residual = 9.09415e-10, Final residual = 9.09415e-10, No Iterations 0
   Normalisation factor = 0.461704
DICPCG:  Solving for p_rgh, Initial residual = 9.09415e-10, Final residual = 9.09415e-10, No Iterations 0
   Normalisation factor = 0.461704
DICPCG:  Solving for p_rgh, Initial residual = 9.09415e-10, Final residual = 9.09415e-10, No Iterations 0
time step continuity errors : sum local = 1.9787e-11, global = 3.38705e-12, cumulative = 1.20405e-11
   Normalisation factor = 0.461704
DICPCG:  Solving for p_rgh, Initial residual = 9.09401e-10, Final residual = 9.09401e-10, No Iterations 0
   Normalisation factor = 0.461704
DICPCG:  Solving for p_rgh, Initial residual = 9.09401e-10, Final residual = 9.09401e-10, No Iterations 0
   Normalisation factor = 0.461704
DICPCG:  Solving for p_rgh, Initial residual = 9.09401e-10, Final residual = 9.09401e-10, No Iterations 0
   Normalisation factor = 0.461704
DICPCG:  Solving for p_rgh, Initial residual = 9.09401e-10, Final residual = 9.09401e-10, No Iterations 0
time step continuity errors : sum local = 1.97867e-11, global = 3.38705e-12, cumulative = 1.54276e-11
ExecutionTime = 2.93 s  ClockTime = 3 s

(0) 22:52:24 [impl::DataContext]:135 in mapData: [0mMapping "Force" for t=0.0002 from "OpenFOAM-Mesh" to "Coupling-Data-Projection-Mesh"
(0) 22:52:24 [cplscheme::BaseCouplingScheme]:399 in secondExchange: [0mTime window completed
(0) 22:52:24 [impl::DataContext]:135 in mapData: [0mMapping "Displacement" for t=0.0002 from "Coupling-Data-Projection-Mesh" to "OpenFOAM-Mesh"
(0) 22:52:24 [impl::ParticipantImpl]:422 in advance: [0miteration: 1, time-window: 3, time: 0.0002 of 1, time-window-size: 0.0001, max-time-step-size: 0.0001, ongoing: yes, time-window-complete: yes, 
--> FOAM Warning : 
    From void adapterInfo(std::string, std::string)
    in file Utilities.C at line 17
    [36mWarning in the preCICE adapter: [0m
The solver's timestep cannot be larger than the coupling timestep. Adjusting from 0.000500 to 0.000100

forces interface write:
    Sum of forces
        Total    : (0.00128753 -0.000545727 6.09477e-14)
        Pressure : (0.00128044 -0.000567263 0)
        Viscous  : (7.08886e-06 2.15356e-05 6.09477e-14)
    Sum of moments
        Total    : (2.72864e-06 6.43764e-06 5.68104e-06)
        Pressure : (2.83631e-06 6.4022e-06 6.08442e-06)
        Viscous  : (-1.07678e-07 3.54443e-08 -4.03374e-07)
    writing force and moment files.

forces baseForces write:
    Sum of forces
        Total    : (0.00128753 -0.000545727 6.09477e-14)
        Pressure : (0.00128044 -0.000567263 0)
        Viscous  : (7.08886e-06 2.15356e-05 6.09477e-14)
    Sum of moments
        Total    : (2.72864e-06 6.43764e-06 5.68104e-06)
        Pressure : (2.83631e-06 6.4022e-06 6.08442e-06)
        Viscous  : (-1.07678e-07 3.54443e-08 -4.03374e-07)
    writing force and moment files.

forces storyForces write:
    Sum of forces
        Total    : (0.00128753 -0.000545727 6.09477e-14)
        Pressure : (0.00128044 -0.000567263 0)
        Viscous  : (7.08886e-06 2.15356e-05 6.09477e-14)
    Sum of moments
        Total    : (2.72864e-06 6.43764e-06 5.68104e-06)
        Pressure : (2.83631e-06 6.4022e-06 6.08442e-06)
        Viscous  : (-1.07678e-07 3.54443e-08 -4.03374e-07)
    writing force and moment files.

Courant Number mean: 5.64838e-05 max: 0.00308921
Interface Courant Number mean: 0 max: 0
Time = 0.0003

PIMPLE: iteration 1
--> FOAM Warning : 
    From Foam::labelHashSet Foam::polyBoundaryMesh::patchSet(const Foam::UList<Foam::wordRe>&, bool, bool) const
    in file meshes/polyMesh/polyBoundaryMesh/polyBoundaryMesh.C at line 1098
    Cannot find any patch or group names matching paddle
--> FOAM Warning : 
    From Foam::labelHashSet Foam::polyBoundaryMesh::patchSet(const Foam::UList<Foam::wordRe>&, bool, bool) const
    in file meshes/polyMesh/polyBoundaryMesh/polyBoundaryMesh.C at line 1098
    Cannot find any patch or group names matching flumeFloor
--> FOAM Warning : 
    From void Foam::lduMatrix::operator-=(const Foam::lduMatrix&)
    in file matrices/lduMatrix/lduMatrix/lduMatrixOperations.C at line 290
    Unknown matrix type combination
    this : symmetric    A    : empty
   Normalisation factor = 1e-20
DICPCG:  Solving for cellDisplacementx, Initial residual = 0, Final residual = 0, No Iterations 0
   Normalisation factor = 1e-20
DICPCG:  Solving for cellDisplacementy, Initial residual = 0, Final residual = 0, No Iterations 0
   Normalisation factor = 1e-20
DICPCG:  Solving for cellDisplacementz, Initial residual = 0, Final residual = 0, No Iterations 0
   Normalisation factor = 15.3309
smoothSolver:  Solving for alpha.water, Initial residual = 1.41698e-06, Final residual = 2.4414e-14, No Iterations 1
Phase-1 volume fraction = 0.203305  Min(alpha.water) = 0  Max(alpha.water) = 1
MULES: Correcting alpha.water
MULES: Correcting alpha.water
Phase-1 volume fraction = 0.203305  Min(alpha.water) = -4.6557e-71  Max(alpha.water) = 1
--> FOAM Warning : 
    From void Foam::lduMatrix::operator-=(const Foam::lduMatrix&)
    in file matrices/lduMatrix/lduMatrix/lduMatrixOperations.C at line 290
    Unknown matrix type combination
    this : asymmetric    A    : empty
   Normalisation factor = 0.454341
DICPCG:  Solving for p_rgh, Initial residual = 0.000114781, Final residual = 1.12457e-06, No Iterations 20
   Normalisation factor = 0.454359
DICPCG:  Solving for p_rgh, Initial residual = 1.12453e-06, Final residual = 9.83928e-09, No Iterations 98
   Normalisation factor = 0.454381
DICPCG:  Solving for p_rgh, Initial residual = 9.8388e-09, Final residual = 9.98702e-10, No Iterations 45
   Normalisation factor = 0.454381
DICPCG:  Solving for p_rgh, Initial residual = 9.98702e-10, Final residual = 9.98702e-10, No Iterations 0
time step continuity errors : sum local = 2.13851e-11, global = 8.128e-13, cumulative = 1.62404e-11
   Normalisation factor = 0.454381
DICPCG:  Solving for p_rgh, Initial residual = 4.89061e-07, Final residual = 4.59849e-09, No Iterations 85
   Normalisation factor = 0.454378
DICPCG:  Solving for p_rgh, Initial residual = 4.59852e-09, Final residual = 9.31769e-10, No Iterations 23
   Normalisation factor = 0.454378
DICPCG:  Solving for p_rgh, Initial residual = 9.31769e-10, Final residual = 9.31769e-10, No Iterations 0
   Normalisation factor = 0.454378
DICPCG:  Solving for p_rgh, Initial residual = 9.31769e-10, Final residual = 9.31769e-10, No Iterations 0
time step continuity errors : sum local = 1.99517e-11, global = -1.3587e-12, cumulative = 1.48817e-11
   Normalisation factor = 0.454378
DICPCG:  Solving for p_rgh, Initial residual = 1.39558e-09, Final residual = 7.28861e-10, No Iterations 1
   Normalisation factor = 0.454378
DICPCG:  Solving for p_rgh, Initial residual = 7.28861e-10, Final residual = 7.28861e-10, No Iterations 0
   Normalisation factor = 0.454378
DICPCG:  Solving for p_rgh, Initial residual = 7.28861e-10, Final residual = 7.28861e-10, No Iterations 0
   Normalisation factor = 0.454378
DICPCG:  Solving for p_rgh, Initial residual = 7.28861e-10, Final residual = 7.28861e-10, No Iterations 0
time step continuity errors : sum local = 1.56069e-11, global = -1.37318e-12, cumulative = 1.35085e-11
PIMPLE: iteration 2
--> FOAM Warning : 
    From Foam::labelHashSet Foam::polyBoundaryMesh::patchSet(const Foam::UList<Foam::wordRe>&, bool, bool) const
    in file meshes/polyMesh/polyBoundaryMesh/polyBoundaryMesh.C at line 1098
    Cannot find any patch or group names matching paddle
--> FOAM Warning : 
    From Foam::labelHashSet Foam::polyBoundaryMesh::patchSet(const Foam::UList<Foam::wordRe>&, bool, bool) const
    in file meshes/polyMesh/polyBoundaryMesh/polyBoundaryMesh.C at line 1098
    Cannot find any patch or group names matching flumeFloor
--> FOAM Warning : 
    From void Foam::lduMatrix::operator-=(const Foam::lduMatrix&)
    in file matrices/lduMatrix/lduMatrix/lduMatrixOperations.C at line 290
    Unknown matrix type combination
    this : symmetric    A    : empty
   Normalisation factor = 1e-20
DICPCG:  Solving for cellDisplacementx, Initial residual = 0, Final residual = 0, No Iterations 0
   Normalisation factor = 1e-20
DICPCG:  Solving for cellDisplacementy, Initial residual = 0, Final residual = 0, No Iterations 0
   Normalisation factor = 1e-20
DICPCG:  Solving for cellDisplacementz, Initial residual = 0, Final residual = 0, No Iterations 0
   Normalisation factor = 15.3309
smoothSolver:  Solving for alpha.water, Initial residual = 5.23043e-07, Final residual = 9.40262e-15, No Iterations 1
Phase-1 volume fraction = 0.203305  Min(alpha.water) = 0  Max(alpha.water) = 1
MULES: Correcting alpha.water
MULES: Correcting alpha.water
Phase-1 volume fraction = 0.203305  Min(alpha.water) = -1.7837e-80  Max(alpha.water) = 1
--> FOAM Warning : 
    From void Foam::lduMatrix::operator-=(const Foam::lduMatrix&)
    in file matrices/lduMatrix/lduMatrix/lduMatrixOperations.C at line 290
    Unknown matrix type combination
    this : asymmetric    A    : empty
   Normalisation factor = 0.451226
DICPCG:  Solving for p_rgh, Initial residual = 3.38602e-05, Final residual = 3.19634e-07, No Iterations 8
   Normalisation factor = 0.451222
DICPCG:  Solving for p_rgh, Initial residual = 3.19637e-07, Final residual = 2.6991e-09, No Iterations 111
   Normalisation factor = 0.451222
DICPCG:  Solving for p_rgh, Initial residual = 2.6991e-09, Final residual = 8.39165e-10, No Iterations 23
   Normalisation factor = 0.451222
DICPCG:  Solving for p_rgh, Initial residual = 8.39165e-10, Final residual = 8.39165e-10, No Iterations 0
time step continuity errors : sum local = 1.7844e-11, global = 2.46605e-13, cumulative = 1.37551e-11
   Normalisation factor = 0.451222
DICPCG:  Solving for p_rgh, Initial residual = 7.54126e-09, Final residual = 9.19331e-10, No Iterations 4
   Normalisation factor = 0.451222
DICPCG:  Solving for p_rgh, Initial residual = 9.19331e-10, Final residual = 9.19331e-10, No Iterations 0
   Normalisation factor = 0.451222
DICPCG:  Solving for p_rgh, Initial residual = 9.19331e-10, Final residual = 9.19331e-10, No Iterations 0
   Normalisation factor = 0.451222
DICPCG:  Solving for p_rgh, Initial residual = 9.19331e-10, Final residual = 9.19331e-10, No Iterations 0
time step continuity errors : sum local = 1.95486e-11, global = 1.6865e-13, cumulative = 1.39238e-11
   Normalisation factor = 0.451222
DICPCG:  Solving for p_rgh, Initial residual = 9.27096e-10, Final residual = 9.27096e-10, No Iterations 0
   Normalisation factor = 0.451222
DICPCG:  Solving for p_rgh, Initial residual = 9.27096e-10, Final residual = 9.27096e-10, No Iterations 0
   Normalisation factor = 0.451222
DICPCG:  Solving for p_rgh, Initial residual = 9.27096e-10, Final residual = 9.27096e-10, No Iterations 0
   Normalisation factor = 0.451222
DICPCG:  Solving for p_rgh, Initial residual = 9.27096e-10, Final residual = 9.27096e-10, No Iterations 0
time step continuity errors : sum local = 1.97138e-11, global = 1.68486e-13, cumulative = 1.40923e-11
PIMPLE: iteration 3
--> FOAM Warning : 
    From Foam::labelHashSet Foam::polyBoundaryMesh::patchSet(const Foam::UList<Foam::wordRe>&, bool, bool) const
    in file meshes/polyMesh/polyBoundaryMesh/polyBoundaryMesh.C at line 1098
    Cannot find any patch or group names matching paddle
--> FOAM Warning : 
    From Foam::labelHashSet Foam::polyBoundaryMesh::patchSet(const Foam::UList<Foam::wordRe>&, bool, bool) const
    in file meshes/polyMesh/polyBoundaryMesh/polyBoundaryMesh.C at line 1098
    Cannot find any patch or group names matching flumeFloor
--> FOAM Warning : 
    From void Foam::lduMatrix::operator-=(const Foam::lduMatrix&)
    in file matrices/lduMatrix/lduMatrix/lduMatrixOperations.C at line 290
    Unknown matrix type combination
    this : symmetric    A    : empty
   Normalisation factor = 1e-20
DICPCG:  Solving for cellDisplacementx, Initial residual = 0, Final residual = 0, No Iterations 0
   Normalisation factor = 1e-20
DICPCG:  Solving for cellDisplacementy, Initial residual = 0, Final residual = 0, No Iterations 0
   Normalisation factor = 1e-20
DICPCG:  Solving for cellDisplacementz, Initial residual = 0, Final residual = 0, No Iterations 0
   Normalisation factor = 15.3309
smoothSolver:  Solving for alpha.water, Initial residual = 1.32477e-08, Final residual = 7.35017e-16, No Iterations 1
Phase-1 volume fraction = 0.203305  Min(alpha.water) = 0  Max(alpha.water) = 1
MULES: Correcting alpha.water
MULES: Correcting alpha.water
Phase-1 volume fraction = 0.203305  Min(alpha.water) = -1.65418e-80  Max(alpha.water) = 1
--> FOAM Warning : 
    From void Foam::lduMatrix::operator-=(const Foam::lduMatrix&)
    in file matrices/lduMatrix/lduMatrix/lduMatrixOperations.C at line 290
    Unknown matrix type combination
    this : asymmetric    A    : empty
   Normalisation factor = 0.451231
DICPCG:  Solving for p_rgh, Initial residual = 1.52511e-06, Final residual = 1.38615e-08, No Iterations 11
   Normalisation factor = 0.451231
DICPCG:  Solving for p_rgh, Initial residual = 1.38615e-08, Final residual = 9.95971e-10, No Iterations 92
   Normalisation factor = 0.451232
DICPCG:  Solving for p_rgh, Initial residual = 9.95971e-10, Final residual = 9.95971e-10, No Iterations 0
   Normalisation factor = 0.451232
DICPCG:  Solving for p_rgh, Initial residual = 9.95971e-10, Final residual = 9.95971e-10, No Iterations 0
time step continuity errors : sum local = 2.11788e-11, global = 4.82579e-13, cumulative = 1.45748e-11
   Normalisation factor = 0.451232
DICPCG:  Solving for p_rgh, Initial residual = 1.47606e-09, Final residual = 5.46067e-10, No Iterations 1
   Normalisation factor = 0.451232
DICPCG:  Solving for p_rgh, Initial residual = 5.46067e-10, Final residual = 5.46067e-10, No Iterations 0
   Normalisation factor = 0.451232
DICPCG:  Solving for p_rgh, Initial residual = 5.46067e-10, Final residual = 5.46067e-10, No Iterations 0
   Normalisation factor = 0.451232
DICPCG:  Solving for p_rgh, Initial residual = 5.46067e-10, Final residual = 5.46067e-10, No Iterations 0
time step continuity errors : sum local = 1.16118e-11, global = 4.71822e-13, cumulative = 1.50467e-11
   Normalisation factor = 0.451232
DICPCG:  Solving for p_rgh, Initial residual = 5.4659e-10, Final residual = 5.4659e-10, No Iterations 0
   Normalisation factor = 0.451232
DICPCG:  Solving for p_rgh, Initial residual = 5.4659e-10, Final residual = 5.4659e-10, No Iterations 0
   Normalisation factor = 0.451232
DICPCG:  Solving for p_rgh, Initial residual = 5.4659e-10, Final residual = 5.4659e-10, No Iterations 0
   Normalisation factor = 0.451232
DICPCG:  Solving for p_rgh, Initial residual = 5.4659e-10, Final residual = 5.4659e-10, No Iterations 0
time step continuity errors : sum local = 1.16229e-11, global = 4.71819e-13, cumulative = 1.55185e-11
PIMPLE: iteration 4
--> FOAM Warning : 
    From Foam::labelHashSet Foam::polyBoundaryMesh::patchSet(const Foam::UList<Foam::wordRe>&, bool, bool) const
    in file meshes/polyMesh/polyBoundaryMesh/polyBoundaryMesh.C at line 1098
    Cannot find any patch or group names matching paddle
--> FOAM Warning : 
    From Foam::labelHashSet Foam::polyBoundaryMesh::patchSet(const Foam::UList<Foam::wordRe>&, bool, bool) const
    in file meshes/polyMesh/polyBoundaryMesh/polyBoundaryMesh.C at line 1098
    Cannot find any patch or group names matching flumeFloor
--> FOAM Warning : 
    From void Foam::lduMatrix::operator-=(const Foam::lduMatrix&)
    in file matrices/lduMatrix/lduMatrix/lduMatrixOperations.C at line 290
    Unknown matrix type combination
    this : symmetric    A    : empty
   Normalisation factor = 1e-20
DICPCG:  Solving for cellDisplacementx, Initial residual = 0, Final residual = 0, No Iterations 0
   Normalisation factor = 1e-20
DICPCG:  Solving for cellDisplacementy, Initial residual = 0, Final residual = 0, No Iterations 0
   Normalisation factor = 1e-20
DICPCG:  Solving for cellDisplacementz, Initial residual = 0, Final residual = 0, No Iterations 0
   Normalisation factor = 15.3309
smoothSolver:  Solving for alpha.water, Initial residual = 8.65643e-09, Final residual = 2.0613e-16, No Iterations 1
Phase-1 volume fraction = 0.203305  Min(alpha.water) = 0  Max(alpha.water) = 1
MULES: Correcting alpha.water
MULES: Correcting alpha.water
Phase-1 volume fraction = 0.203305  Min(alpha.water) = -1.74285e-80  Max(alpha.water) = 1
--> FOAM Warning : 
    From void Foam::lduMatrix::operator-=(const Foam::lduMatrix&)
    in file matrices/lduMatrix/lduMatrix/lduMatrixOperations.C at line 290
    Unknown matrix type combination
    this : asymmetric    A    : empty
   Normalisation factor = 0.451231
DICPCG:  Solving for p_rgh, Initial residual = 1.1414e-07, Final residual = 1.10555e-09, No Iterations 11
   Normalisation factor = 0.451231
DICPCG:  Solving for p_rgh, Initial residual = 1.10555e-09, Final residual = 8.10957e-10, No Iterations 1
   Normalisation factor = 0.451231
DICPCG:  Solving for p_rgh, Initial residual = 8.10957e-10, Final residual = 8.10957e-10, No Iterations 0
   Normalisation factor = 0.451231
DICPCG:  Solving for p_rgh, Initial residual = 8.10957e-10, Final residual = 8.10957e-10, No Iterations 0
time step continuity errors : sum local = 1.72445e-11, global = 2.11257e-12, cumulative = 1.7631e-11
   Normalisation factor = 0.451231
DICPCG:  Solving for p_rgh, Initial residual = 8.2858e-10, Final residual = 8.2858e-10, No Iterations 0
   Normalisation factor = 0.451231
DICPCG:  Solving for p_rgh, Initial residual = 8.2858e-10, Final residual = 8.2858e-10, No Iterations 0
   Normalisation factor = 0.451231
DICPCG:  Solving for p_rgh, Initial residual = 8.2858e-10, Final residual = 8.2858e-10, No Iterations 0
   Normalisation factor = 0.451231
DICPCG:  Solving for p_rgh, Initial residual = 8.2858e-10, Final residual = 8.2858e-10, No Iterations 0
time step continuity errors : sum local = 1.76193e-11, global = 2.11351e-12, cumulative = 1.97446e-11
   Normalisation factor = 0.451231
DICPCG:  Solving for p_rgh, Initial residual = 8.28682e-10, Final residual = 8.28682e-10, No Iterations 0
   Normalisation factor = 0.451231
DICPCG:  Solving for p_rgh, Initial residual = 8.28682e-10, Final residual = 8.28682e-10, No Iterations 0
   Normalisation factor = 0.451231
DICPCG:  Solving for p_rgh, Initial residual = 8.28682e-10, Final residual = 8.28682e-10, No Iterations 0
   Normalisation factor = 0.451231
DICPCG:  Solving for p_rgh, Initial residual = 8.28682e-10, Final residual = 8.28682e-10, No Iterations 0
time step continuity errors : sum local = 1.76214e-11, global = 2.11351e-12, cumulative = 2.18581e-11
PIMPLE: iteration 5
--> FOAM Warning : 
    From Foam::labelHashSet Foam::polyBoundaryMesh::patchSet(const Foam::UList<Foam::wordRe>&, bool, bool) const
    in file meshes/polyMesh/polyBoundaryMesh/polyBoundaryMesh.C at line 1098
    Cannot find any patch or group names matching paddle
--> FOAM Warning : 
    From Foam::labelHashSet Foam::polyBoundaryMesh::patchSet(const Foam::UList<Foam::wordRe>&, bool, bool) const
    in file meshes/polyMesh/polyBoundaryMesh/polyBoundaryMesh.C at line 1098
    Cannot find any patch or group names matching flumeFloor
--> FOAM Warning : 
    From void Foam::lduMatrix::operator-=(const Foam::lduMatrix&)
    in file matrices/lduMatrix/lduMatrix/lduMatrixOperations.C at line 290
    Unknown matrix type combination
    this : symmetric    A    : empty
   Normalisation factor = 1e-20
DICPCG:  Solving for cellDisplacementx, Initial residual = 0, Final residual = 0, No Iterations 0
   Normalisation factor = 1e-20
DICPCG:  Solving for cellDisplacementy, Initial residual = 0, Final residual = 0, No Iterations 0
   Normalisation factor = 1e-20
DICPCG:  Solving for cellDisplacementz, Initial residual = 0, Final residual = 0, No Iterations 0
   Normalisation factor = 15.3309
smoothSolver:  Solving for alpha.water, Initial residual = 7.52724e-09, Final residual = 1.41079e-16, No Iterations 1
Phase-1 volume fraction = 0.203305  Min(alpha.water) = 0  Max(alpha.water) = 1
MULES: Correcting alpha.water
MULES: Correcting alpha.water
Phase-1 volume fraction = 0.203305  Min(alpha.water) = -1.66421e-80  Max(alpha.water) = 1
--> FOAM Warning : 
    From void Foam::lduMatrix::operator-=(const Foam::lduMatrix&)
    in file matrices/lduMatrix/lduMatrix/lduMatrixOperations.C at line 290
    Unknown matrix type combination
    this : asymmetric    A    : empty
   Normalisation factor = 0.451231
DICPCG:  Solving for p_rgh, Initial residual = 9.93411e-09, Final residual = 7.57668e-10, No Iterations 2
   Normalisation factor = 0.451231
DICPCG:  Solving for p_rgh, Initial residual = 7.57668e-10, Final residual = 7.57668e-10, No Iterations 0
   Normalisation factor = 0.451231
DICPCG:  Solving for p_rgh, Initial residual = 7.57668e-10, Final residual = 7.57668e-10, No Iterations 0
   Normalisation factor = 0.451231
DICPCG:  Solving for p_rgh, Initial residual = 7.57668e-10, Final residual = 7.57668e-10, No Iterations 0
time step continuity errors : sum local = 1.61114e-11, global = 2.24024e-12, cumulative = 2.40983e-11
   Normalisation factor = 0.451231
DICPCG:  Solving for p_rgh, Initial residual = 7.57793e-10, Final residual = 7.57793e-10, No Iterations 0
   Normalisation factor = 0.451231
DICPCG:  Solving for p_rgh, Initial residual = 7.57793e-10, Final residual = 7.57793e-10, No Iterations 0
   Normalisation factor = 0.451231
DICPCG:  Solving for p_rgh, Initial residual = 7.57793e-10, Final residual = 7.57793e-10, No Iterations 0
   Normalisation factor = 0.451231
DICPCG:  Solving for p_rgh, Initial residual = 7.57793e-10, Final residual = 7.57793e-10, No Iterations 0
time step continuity errors : sum local = 1.6114e-11, global = 2.24028e-12, cumulative = 2.63386e-11
   Normalisation factor = 0.451231
DICPCG:  Solving for p_rgh, Initial residual = 7.57793e-10, Final residual = 7.57793e-10, No Iterations 0
   Normalisation factor = 0.451231
DICPCG:  Solving for p_rgh, Initial residual = 7.57793e-10, Final residual = 7.57793e-10, No Iterations 0
   Normalisation factor = 0.451231
DICPCG:  Solving for p_rgh, Initial residual = 7.57793e-10, Final residual = 7.57793e-10, No Iterations 0
   Normalisation factor = 0.451231
DICPCG:  Solving for p_rgh, Initial residual = 7.57793e-10, Final residual = 7.57793e-10, No Iterations 0
time step continuity errors : sum local = 1.6114e-11, global = 2.24028e-12, cumulative = 2.85789e-11
ExecutionTime = 4.2 s  ClockTime = 5 s

(0) 22:52:26 [impl::DataContext]:135 in mapData: [0mMapping "Force" for t=0.00030000000000000003 from "OpenFOAM-Mesh" to "Coupling-Data-Projection-Mesh"
(0) 22:52:26 [cplscheme::BaseCouplingScheme]:399 in secondExchange: [0mTime window completed
(0) 22:52:26 [impl::DataContext]:135 in mapData: [0mMapping "Displacement" for t=0.00030000000000000003 from "Coupling-Data-Projection-Mesh" to "OpenFOAM-Mesh"
(0) 22:52:26 [impl::ParticipantImpl]:422 in advance: [0miteration: 1, time-window: 4, time: 0.0003 of 1, time-window-size: 0.0001, max-time-step-size: 0.0001, ongoing: yes, time-window-complete: yes, 
--> FOAM Warning : 
    From void adapterInfo(std::string, std::string)
    in file Utilities.C at line 17
    [36mWarning in the preCICE adapter: [0m
The solver's timestep cannot be larger than the coupling timestep. Adjusting from 0.000500 to 0.000100

forces interface write:
    Sum of forces
        Total    : (0.00128524 -0.000530259 1.79669e-14)
        Pressure : (0.00127469 -0.000562775 0)
        Viscous  : (1.05533e-05 3.2516e-05 1.79669e-14)
    Sum of moments
        Total    : (2.65129e-06 6.42622e-06 5.46047e-06)
        Pressure : (2.81387e-06 6.37346e-06 6.06252e-06)
        Viscous  : (-1.6258e-07 5.27666e-08 -6.02052e-07)
    writing force and moment files.

forces baseForces write:
    Sum of forces
        Total    : (0.00128524 -0.000530259 1.79669e-14)
        Pressure : (0.00127469 -0.000562775 0)
        Viscous  : (1.05533e-05 3.2516e-05 1.79669e-14)
    Sum of moments
        Total    : (2.65129e-06 6.42622e-06 5.46047e-06)
        Pressure : (2.81387e-06 6.37346e-06 6.06252e-06)
        Viscous  : (-1.6258e-07 5.27666e-08 -6.02052e-07)
    writing force and moment files.

forces storyForces write:
    Sum of forces
        Total    : (0.00128524 -0.000530259 1.79669e-14)
        Pressure : (0.00127469 -0.000562775 0)
        Viscous  : (1.05533e-05 3.2516e-05 1.79669e-14)
    Sum of moments
        Total    : (2.65129e-06 6.42622e-06 5.46047e-06)
        Pressure : (2.81387e-06 6.37346e-06 6.06252e-06)
        Viscous  : (-1.6258e-07 5.27666e-08 -6.02052e-07)
    writing force and moment files.

Courant Number mean: 8.34996e-05 max: 0.00375784
Interface Courant Number mean: 0 max: 0
Time = 0.0004

PIMPLE: iteration 1
--> FOAM Warning : 
    From Foam::labelHashSet Foam::polyBoundaryMesh::patchSet(const Foam::UList<Foam::wordRe>&, bool, bool) const
    in file meshes/polyMesh/polyBoundaryMesh/polyBoundaryMesh.C at line 1098
    Cannot find any patch or group names matching paddle
--> FOAM Warning : 
    From Foam::labelHashSet Foam::polyBoundaryMesh::patchSet(const Foam::UList<Foam::wordRe>&, bool, bool) const
    in file meshes/polyMesh/polyBoundaryMesh/polyBoundaryMesh.C at line 1098
    Cannot find any patch or group names matching flumeFloor
--> FOAM Warning : 
    From void Foam::lduMatrix::operator-=(const Foam::lduMatrix&)
    in file matrices/lduMatrix/lduMatrix/lduMatrixOperations.C at line 290
    Unknown matrix type combination
    this : symmetric    A    : empty
   Normalisation factor = 1e-20
DICPCG:  Solving for cellDisplacementx, Initial residual = 0, Final residual = 0, No Iterations 0
   Normalisation factor = 1e-20
DICPCG:  Solving for cellDisplacementy, Initial residual = 0, Final residual = 0, No Iterations 0
   Normalisation factor = 1e-20
DICPCG:  Solving for cellDisplacementz, Initial residual = 0, Final residual = 0, No Iterations 0
   Normalisation factor = 15.3309
smoothSolver:  Solving for alpha.water, Initial residual = 1.91902e-06, Final residual = 4.8319e-14, No Iterations 1
Phase-1 volume fraction = 0.203305  Min(alpha.water) = 0  Max(alpha.water) = 1
MULES: Correcting alpha.water
MULES: Correcting alpha.water
Phase-1 volume fraction = 0.203305  Min(alpha.water) = -6.57253e-80  Max(alpha.water) = 1
--> FOAM Warning : 
    From void Foam::lduMatrix::operator-=(const Foam::lduMatrix&)
    in file matrices/lduMatrix/lduMatrix/lduMatrixOperations.C at line 290
    Unknown matrix type combination
    this : asymmetric    A    : empty
   Normalisation factor = 0.44234
DICPCG:  Solving for p_rgh, Initial residual = 0.000139422, Final residual = 1.2848e-06, No Iterations 11
   Normalisation factor = 0.442339
DICPCG:  Solving for p_rgh, Initial residual = 1.28481e-06, Final residual = 1.24693e-08, No Iterations 103
   Normalisation factor = 0.442365
DICPCG:  Solving for p_rgh, Initial residual = 1.24686e-08, Final residual = 9.00844e-10, No Iterations 26
   Normalisation factor = 0.442365
DICPCG:  Solving for p_rgh, Initial residual = 9.00844e-10, Final residual = 9.00844e-10, No Iterations 0
time step continuity errors : sum local = 1.87795e-11, global = 7.45314e-13, cumulative = 2.93242e-11
   Normalisation factor = 0.442365
DICPCG:  Solving for p_rgh, Initial residual = 5.73163e-07, Final residual = 5.49829e-09, No Iterations 91
   Normalisation factor = 0.44236
DICPCG:  Solving for p_rgh, Initial residual = 5.49835e-09, Final residual = 8.65889e-10, No Iterations 37
   Normalisation factor = 0.44236
DICPCG:  Solving for p_rgh, Initial residual = 8.65889e-10, Final residual = 8.65889e-10, No Iterations 0
   Normalisation factor = 0.44236
DICPCG:  Solving for p_rgh, Initial residual = 8.65889e-10, Final residual = 8.65889e-10, No Iterations 0
time step continuity errors : sum local = 1.80507e-11, global = -2.25269e-12, cumulative = 2.70715e-11
   Normalisation factor = 0.44236
DICPCG:  Solving for p_rgh, Initial residual = 1.57375e-09, Final residual = 7.44612e-10, No Iterations 1
   Normalisation factor = 0.44236
DICPCG:  Solving for p_rgh, Initial residual = 7.44612e-10, Final residual = 7.44612e-10, No Iterations 0
   Normalisation factor = 0.44236
DICPCG:  Solving for p_rgh, Initial residual = 7.44612e-10, Final residual = 7.44612e-10, No Iterations 0
   Normalisation factor = 0.44236
DICPCG:  Solving for p_rgh, Initial residual = 7.44612e-10, Final residual = 7.44612e-10, No Iterations 0
time step continuity errors : sum local = 1.55225e-11, global = -2.23435e-12, cumulative = 2.48371e-11
PIMPLE: iteration 2
--> FOAM Warning : 
    From Foam::labelHashSet Foam::polyBoundaryMesh::patchSet(const Foam::UList<Foam::wordRe>&, bool, bool) const
    in file meshes/polyMesh/polyBoundaryMesh/polyBoundaryMesh.C at line 1098
    Cannot find any patch or group names matching paddle
--> FOAM Warning : 
    From Foam::labelHashSet Foam::polyBoundaryMesh::patchSet(const Foam::UList<Foam::wordRe>&, bool, bool) const
    in file meshes/polyMesh/polyBoundaryMesh/polyBoundaryMesh.C at line 1098
    Cannot find any patch or group names matching flumeFloor
--> FOAM Warning : 
    From void Foam::lduMatrix::operator-=(const Foam::lduMatrix&)
    in file matrices/lduMatrix/lduMatrix/lduMatrixOperations.C at line 290
    Unknown matrix type combination
    this : symmetric    A    : empty
   Normalisation factor = 1e-20
DICPCG:  Solving for cellDisplacementx, Initial residual = 0, Final residual = 0, No Iterations 0
   Normalisation factor = 1e-20
DICPCG:  Solving for cellDisplacementy, Initial residual = 0, Final residual = 0, No Iterations 0
   Normalisation factor = 1e-20
DICPCG:  Solving for cellDisplacementz, Initial residual = 0, Final residual = 0, No Iterations 0
   Normalisation factor = 15.3308
smoothSolver:  Solving for alpha.water, Initial residual = 4.5949e-07, Final residual = 7.35501e-15, No Iterations 1
Phase-1 volume fraction = 0.203305  Min(alpha.water) = 0  Max(alpha.water) = 1
MULES: Correcting alpha.water
MULES: Correcting alpha.water
Phase-1 volume fraction = 0.203305  Min(alpha.water) = -4.67547e-79  Max(alpha.water) = 1
--> FOAM Warning : 
    From void Foam::lduMatrix::operator-=(const Foam::lduMatrix&)
    in file matrices/lduMatrix/lduMatrix/lduMatrixOperations.C at line 290
    Unknown matrix type combination
    this : asymmetric    A    : empty
   Normalisation factor = 0.439735
DICPCG:  Solving for p_rgh, Initial residual = 2.59991e-05, Final residual = 2.56899e-07, No Iterations 6
   Normalisation factor = 0.439732
DICPCG:  Solving for p_rgh, Initial residual = 2.56901e-07, Final residual = 2.30741e-09, No Iterations 122
   Normalisation factor = 0.439732
DICPCG:  Solving for p_rgh, Initial residual = 2.30741e-09, Final residual = 9.63315e-10, No Iterations 12
   Normalisation factor = 0.439732
DICPCG:  Solving for p_rgh, Initial residual = 9.63315e-10, Final residual = 9.63315e-10, No Iterations 0
time step continuity errors : sum local = 1.99623e-11, global = 5.42625e-13, cumulative = 2.53798e-11
   Normalisation factor = 0.439732
DICPCG:  Solving for p_rgh, Initial residual = 5.26173e-09, Final residual = 8.93967e-10, No Iterations 3
   Normalisation factor = 0.439732
DICPCG:  Solving for p_rgh, Initial residual = 8.93967e-10, Final residual = 8.93967e-10, No Iterations 0
   Normalisation factor = 0.439732
DICPCG:  Solving for p_rgh, Initial residual = 8.93967e-10, Final residual = 8.93967e-10, No Iterations 0
   Normalisation factor = 0.439732
DICPCG:  Solving for p_rgh, Initial residual = 8.93967e-10, Final residual = 8.93967e-10, No Iterations 0
time step continuity errors : sum local = 1.85253e-11, global = 5.08507e-13, cumulative = 2.58883e-11
   Normalisation factor = 0.439732
DICPCG:  Solving for p_rgh, Initial residual = 8.91624e-10, Final residual = 8.91624e-10, No Iterations 0
   Normalisation factor = 0.439732
DICPCG:  Solving for p_rgh, Initial residual = 8.91624e-10, Final residual = 8.91624e-10, No Iterations 0
   Normalisation factor = 0.439732
DICPCG:  Solving for p_rgh, Initial residual = 8.91624e-10, Final residual = 8.91624e-10, No Iterations 0
   Normalisation factor = 0.439732
[...]
   Normalisation factor = 0.427621
DICPCG:  Solving for p_rgh, Initial residual = 8.79349e-10, Final residual = 8.79349e-10, No Iterations 0
time step continuity errors : sum local = 1.77204e-11, global = -8.87999e-13, cumulative = 8.35034e-12
   Normalisation factor = 0.427621
DICPCG:  Solving for p_rgh, Initial residual = 8.79351e-10, Final residual = 8.79351e-10, No Iterations 0
   Normalisation factor = 0.427621
DICPCG:  Solving for p_rgh, Initial residual = 8.79351e-10, Final residual = 8.79351e-10, No Iterations 0
   Normalisation factor = 0.427621
DICPCG:  Solving for p_rgh, Initial residual = 8.79351e-10, Final residual = 8.79351e-10, No Iterations 0
   Normalisation factor = 0.427621
DICPCG:  Solving for p_rgh, Initial residual = 8.79351e-10, Final residual = 8.79351e-10, No Iterations 0
time step continuity errors : sum local = 1.77205e-11, global = -8.87999e-13, cumulative = 7.46234e-12
PIMPLE: iteration 5
--> FOAM Warning : 
    From Foam::labelHashSet Foam::polyBoundaryMesh::patchSet(const Foam::UList<Foam::wordRe>&, bool, bool) const
    in file meshes/polyMesh/polyBoundaryMesh/polyBoundaryMesh.C at line 1098
    Cannot find any patch or group names matching paddle
--> FOAM Warning : 
    From Foam::labelHashSet Foam::polyBoundaryMesh::patchSet(const Foam::UList<Foam::wordRe>&, bool, bool) const
    in file meshes/polyMesh/polyBoundaryMesh/polyBoundaryMesh.C at line 1098
    Cannot find any patch or group names matching flumeFloor
--> FOAM Warning : 
    From void Foam::lduMatrix::operator-=(const Foam::lduMatrix&)
    in file matrices/lduMatrix/lduMatrix/lduMatrixOperations.C at line 290
    Unknown matrix type combination
    this : symmetric    A    : empty
   Normalisation factor = 1e-20
DICPCG:  Solving for cellDisplacementx, Initial residual = 0, Final residual = 0, No Iterations 0
   Normalisation factor = 1e-20
DICPCG:  Solving for cellDisplacementy, Initial residual = 0, Final residual = 0, No Iterations 0
   Normalisation factor = 1e-20
DICPCG:  Solving for cellDisplacementz, Initial residual = 0, Final residual = 0, No Iterations 0
   Normalisation factor = 15.3308
smoothSolver:  Solving for alpha.water, Initial residual = 1.87205e-08, Final residual = 4.23329e-16, No Iterations 1
Phase-1 volume fraction = 0.203305  Min(alpha.water) = 0  Max(alpha.water) = 1
MULES: Correcting alpha.water
MULES: Correcting alpha.water
Phase-1 volume fraction = 0.203305  Min(alpha.water) = -2.69475e-81  Max(alpha.water) = 1
--> FOAM Warning : 
    From void Foam::lduMatrix::operator-=(const Foam::lduMatrix&)
    in file matrices/lduMatrix/lduMatrix/lduMatrixOperations.C at line 290
    Unknown matrix type combination
    this : asymmetric    A    : empty
   Normalisation factor = 0.427621
DICPCG:  Solving for p_rgh, Initial residual = 1.92277e-09, Final residual = 6.20353e-10, No Iterations 1
   Normalisation factor = 0.427621
DICPCG:  Solving for p_rgh, Initial residual = 6.20353e-10, Final residual = 6.20353e-10, No Iterations 0
   Normalisation factor = 0.427621
DICPCG:  Solving for p_rgh, Initial residual = 6.20353e-10, Final residual = 6.20353e-10, No Iterations 0
   Normalisation factor = 0.427621
DICPCG:  Solving for p_rgh, Initial residual = 6.20353e-10, Final residual = 6.20353e-10, No Iterations 0
time step continuity errors : sum local = 1.25012e-11, global = -8.99565e-13, cumulative = 6.56277e-12
   Normalisation factor = 0.427621
DICPCG:  Solving for p_rgh, Initial residual = 6.20438e-10, Final residual = 6.20438e-10, No Iterations 0
   Normalisation factor = 0.427621
DICPCG:  Solving for p_rgh, Initial residual = 6.20438e-10, Final residual = 6.20438e-10, No Iterations 0
   Normalisation factor = 0.427621
DICPCG:  Solving for p_rgh, Initial residual = 6.20438e-10, Final residual = 6.20438e-10, No Iterations 0
   Normalisation factor = 0.427621
DICPCG:  Solving for p_rgh, Initial residual = 6.20438e-10, Final residual = 6.20438e-10, No Iterations 0
time step continuity errors : sum local = 1.25029e-11, global = -8.9957e-13, cumulative = 5.6632e-12
   Normalisation factor = 0.427621
DICPCG:  Solving for p_rgh, Initial residual = 6.20439e-10, Final residual = 6.20439e-10, No Iterations 0
   Normalisation factor = 0.427621
DICPCG:  Solving for p_rgh, Initial residual = 6.20439e-10, Final residual = 6.20439e-10, No Iterations 0
   Normalisation factor = 0.427621
DICPCG:  Solving for p_rgh, Initial residual = 6.20439e-10, Final residual = 6.20439e-10, No Iterations 0
   Normalisation factor = 0.427621
DICPCG:  Solving for p_rgh, Initial residual = 6.20439e-10, Final residual = 6.20439e-10, No Iterations 0
time step continuity errors : sum local = 1.25029e-11, global = -8.9957e-13, cumulative = 4.76363e-12
ExecutionTime = 6.71 s  ClockTime = 7 s

(0) 22:52:28 [impl::DataContext]:135 in mapData: [0mMapping "Force" for t=0.0005 from "OpenFOAM-Mesh" to "Coupling-Data-Projection-Mesh"
(0) 22:52:28 [cplscheme::BaseCouplingScheme]:399 in secondExchange: [0mTime window completed
(0) 22:52:28 [impl::DataContext]:135 in mapData: [0mMapping "Displacement" for t=0.0005 from "Coupling-Data-Projection-Mesh" to "OpenFOAM-Mesh"
(0) 22:52:28 [impl::ParticipantImpl]:422 in advance: [0miteration: 1, time-window: 6, time: 0.0005 of 1, time-window-size: 0.0001, max-time-step-size: 0.0001, ongoing: yes, time-window-complete: yes, 
--> FOAM Warning : 
    From void adapterInfo(std::string, std::string)
    in file Utilities.C at line 17
    [36mWarning in the preCICE adapter: [0m
The solver's timestep cannot be larger than the coupling timestep. Adjusting from 0.000500 to 0.000100

forces interface write:
    Sum of forces
        Total    : (0.00129077 -0.000503921 3.27009e-13)
        Pressure : (0.00127335 -0.000558533 0)
        Viscous  : (1.74157e-05 5.46115e-05 3.27009e-13)
    Sum of moments
        Total    : (2.51961e-06 6.45383e-06 5.06064e-06)
        Pressure : (2.79266e-06 6.36675e-06 6.05755e-06)
        Viscous  : (-2.73057e-07 8.70787e-08 -9.96905e-07)
    writing force and moment files.

forces baseForces write:
    Sum of forces
        Total    : (0.00129077 -0.000503921 3.27009e-13)
        Pressure : (0.00127335 -0.000558533 0)
        Viscous  : (1.74157e-05 5.46115e-05 3.27009e-13)
    Sum of moments
        Total    : (2.51961e-06 6.45383e-06 5.06064e-06)
        Pressure : (2.79266e-06 6.36675e-06 6.05755e-06)
        Viscous  : (-2.73057e-07 8.70787e-08 -9.96905e-07)
    writing force and moment files.

forces storyForces write:
    Sum of forces
        Total    : (0.00129077 -0.000503921 3.27009e-13)
        Pressure : (0.00127335 -0.000558533 0)
        Viscous  : (1.74157e-05 5.46115e-05 3.27009e-13)
    Sum of moments
        Total    : (2.51961e-06 6.45383e-06 5.06064e-06)
        Pressure : (2.79266e-06 6.36675e-06 6.05755e-06)
        Viscous  : (-2.73057e-07 8.70787e-08 -9.96905e-07)
    writing force and moment files.

Courant Number mean: 0.000136512 max: 0.00464831
Interface Courant Number mean: 7.28868e-07 max: 0.00442678
Time = 0.0006

PIMPLE: iteration 1
--> FOAM Warning : 
    From Foam::labelHashSet Foam::polyBoundaryMesh::patchSet(const Foam::UList<Foam::wordRe>&, bool, bool) const
    in file meshes/polyMesh/polyBoundaryMesh/polyBoundaryMesh.C at line 1098
    Cannot find any patch or group names matching paddle
--> FOAM Warning : 
    From Foam::labelHashSet Foam::polyBoundaryMesh::patchSet(const Foam::UList<Foam::wordRe>&, bool, bool) const
    in file meshes/polyMesh/polyBoundaryMesh/polyBoundaryMesh.C at line 1098
    Cannot find any patch or group names matching flumeFloor
--> FOAM Warning : 
    From void Foam::lduMatrix::operator-=(const Foam::lduMatrix&)
    in file matrices/lduMatrix/lduMatrix/lduMatrixOperations.C at line 290
    Unknown matrix type combination
    this : symmetric    A    : empty
   Normalisation factor = 1e-20
DICPCG:  Solving for cellDisplacementx, Initial residual = 0, Final residual = 0, No Iterations 0
   Normalisation factor = 1e-20
DICPCG:  Solving for cellDisplacementy, Initial residual = 0, Final residual = 0, No Iterations 0
   Normalisation factor = 1e-20
DICPCG:  Solving for cellDisplacementz, Initial residual = 0, Final residual = 0, No Iterations 0
   Normalisation factor = 15.3307
smoothSolver:  Solving for alpha.water, Initial residual = 2.76458e-06, Final residual = 9.88865e-14, No Iterations 1
Phase-1 volume fraction = 0.203305  Min(alpha.water) = 0  Max(alpha.water) = 1
MULES: Correcting alpha.water
MULES: Correcting alpha.water
Phase-1 volume fraction = 0.203305  Min(alpha.water) = -2.12638e-78  Max(alpha.water) = 1
--> FOAM Warning : 
    From void Foam::lduMatrix::operator-=(const Foam::lduMatrix&)
    in file matrices/lduMatrix/lduMatrix/lduMatrixOperations.C at line 290
    Unknown matrix type combination
    this : asymmetric    A    : empty
   Normalisation factor = 0.417168
DICPCG:  Solving for p_rgh, Initial residual = 0.000182026, Final residual = 1.68537e-06, No Iterations 5
   Normalisation factor = 0.417153
DICPCG:  Solving for p_rgh, Initial residual = 1.68543e-06, Final residual = 1.64534e-08, No Iterations 99
   Normalisation factor = 0.417177
DICPCG:  Solving for p_rgh, Initial residual = 1.64524e-08, Final residual = 9.22377e-10, No Iterations 56
   Normalisation factor = 0.417177
DICPCG:  Solving for p_rgh, Initial residual = 9.22377e-10, Final residual = 9.22377e-10, No Iterations 0
time step continuity errors : sum local = 1.81336e-11, global = 3.39378e-12, cumulative = 8.15742e-12
   Normalisation factor = 0.417177
DICPCG:  Solving for p_rgh, Initial residual = 6.52663e-07, Final residual = 6.20529e-09, No Iterations 93
   Normalisation factor = 0.41717
DICPCG:  Solving for p_rgh, Initial residual = 6.2054e-09, Final residual = 9.16894e-10, No Iterations 38
   Normalisation factor = 0.41717
DICPCG:  Solving for p_rgh, Initial residual = 9.16894e-10, Final residual = 9.16894e-10, No Iterations 0
   Normalisation factor = 0.41717
DICPCG:  Solving for p_rgh, Initial residual = 9.16894e-10, Final residual = 9.16894e-10, No Iterations 0
time step continuity errors : sum local = 1.80255e-11, global = -1.78701e-12, cumulative = 6.3704e-12
   Normalisation factor = 0.41717
DICPCG:  Solving for p_rgh, Initial residual = 1.94746e-09, Final residual = 8.03508e-10, No Iterations 1
   Normalisation factor = 0.41717
DICPCG:  Solving for p_rgh, Initial residual = 8.03508e-10, Final residual = 8.03508e-10, No Iterations 0
   Normalisation factor = 0.41717
DICPCG:  Solving for p_rgh, Initial residual = 8.03508e-10, Final residual = 8.03508e-10, No Iterations 0
   Normalisation factor = 0.41717
DICPCG:  Solving for p_rgh, Initial residual = 8.03508e-10, Final residual = 8.03508e-10, No Iterations 0
time step continuity errors : sum local = 1.57964e-11, global = -1.79905e-12, cumulative = 4.57136e-12
PIMPLE: iteration 2
--> FOAM Warning : 
    From Foam::labelHashSet Foam::polyBoundaryMesh::patchSet(const Foam::UList<Foam::wordRe>&, bool, bool) const
    in file meshes/polyMesh/polyBoundaryMesh/polyBoundaryMesh.C at line 1098
    Cannot find any patch or group names matching paddle
--> FOAM Warning : 
    From Foam::labelHashSet Foam::polyBoundaryMesh::patchSet(const Foam::UList<Foam::wordRe>&, bool, bool) const
    in file meshes/polyMesh/polyBoundaryMesh/polyBoundaryMesh.C at line 1098
    Cannot find any patch or group names matching flumeFloor
--> FOAM Warning : 
    From void Foam::lduMatrix::operator-=(const Foam::lduMatrix&)
    in file matrices/lduMatrix/lduMatrix/lduMatrixOperations.C at line 290
    Unknown matrix type combination
    this : symmetric    A    : empty
   Normalisation factor = 1e-20
DICPCG:  Solving for cellDisplacementx, Initial residual = 0, Final residual = 0, No Iterations 0
   Normalisation factor = 1e-20
DICPCG:  Solving for cellDisplacementy, Initial residual = 0, Final residual = 0, No Iterations 0
   Normalisation factor = 1e-20
DICPCG:  Solving for cellDisplacementz, Initial residual = 0, Final residual = 0, No Iterations 0
   Normalisation factor = 15.3307
smoothSolver:  Solving for alpha.water, Initial residual = 4.10201e-07, Final residual = 1.06866e-14, No Iterations 1
Phase-1 volume fraction = 0.203305  Min(alpha.water) = 0  Max(alpha.water) = 1
MULES: Correcting alpha.water
MULES: Correcting alpha.water
Phase-1 volume fraction = 0.203305  Min(alpha.water) = -1.09833e-81  Max(alpha.water) = 1
--> FOAM Warning : 
    From void Foam::lduMatrix::operator-=(const Foam::lduMatrix&)
    in file matrices/lduMatrix/lduMatrix/lduMatrixOperations.C at line 290
    Unknown matrix type combination
    this : asymmetric    A    : empty
   Normalisation factor = 0.415302
DICPCG:  Solving for p_rgh, Initial residual = 1.98343e-05, Final residual = 1.7436e-07, No Iterations 5
   Normalisation factor = 0.415299
DICPCG:  Solving for p_rgh, Initial residual = 1.74361e-07, Final residual = 1.45419e-09, No Iterations 123
   Normalisation factor = 0.415301
DICPCG:  Solving for p_rgh, Initial residual = 1.45418e-09, Final residual = 9.05495e-10, No Iterations 1
   Normalisation factor = 0.415301
DICPCG:  Solving for p_rgh, Initial residual = 9.05495e-10, Final residual = 9.05495e-10, No Iterations 0
time step continuity errors : sum local = 1.77216e-11, global = 5.2351e-13, cumulative = 5.09487e-12
   Normalisation factor = 0.415301
DICPCG:  Solving for p_rgh, Initial residual = 2.62417e-09, Final residual = 9.18372e-10, No Iterations 1
   Normalisation factor = 0.415301
DICPCG:  Solving for p_rgh, Initial residual = 9.18372e-10, Final residual = 9.18372e-10, No Iterations 0
   Normalisation factor = 0.415301
DICPCG:  Solving for p_rgh, Initial residual = 9.18372e-10, Final residual = 9.18372e-10, No Iterations 0
   Normalisation factor = 0.415301
DICPCG:  Solving for p_rgh, Initial residual = 9.18372e-10, Final residual = 9.18372e-10, No Iterations 0
time step continuity errors : sum local = 1.79736e-11, global = 5.05187e-13, cumulative = 5.60005e-12
   Normalisation factor = 0.415301
DICPCG:  Solving for p_rgh, Initial residual = 9.20037e-10, Final residual = 9.20037e-10, No Iterations 0
   Normalisation factor = 0.415301
DICPCG:  Solving for p_rgh, Initial residual = 9.20037e-10, Final residual = 9.20037e-10, No Iterations 0
   Normalisation factor = 0.415301
DICPCG:  Solving for p_rgh, Initial residual = 9.20037e-10, Final residual = 9.20037e-10, No Iterations 0
   Normalisation factor = 0.415301
DICPCG:  Solving for p_rgh, Initial residual = 9.20037e-10, Final residual = 9.20037e-10, No Iterations 0
time step continuity errors : sum local = 1.80062e-11, global = 5.05157e-13, cumulative = 6.10521e-12
PIMPLE: iteration 3
--> FOAM Warning : 
    From Foam::labelHashSet Foam::polyBoundaryMesh::patchSet(const Foam::UList<Foam::wordRe>&, bool, bool) const
    in file meshes/polyMesh/polyBoundaryMesh/polyBoundaryMesh.C at line 1098
    Cannot find any patch or group names matching paddle
--> FOAM Warning : 
    From Foam::labelHashSet Foam::polyBoundaryMesh::patchSet(const Foam::UList<Foam::wordRe>&, bool, bool) const
    in file meshes/polyMesh/polyBoundaryMesh/polyBoundaryMesh.C at line 1098
    Cannot find any patch or group names matching flumeFloor
--> FOAM Warning : 
    From void Foam::lduMatrix::operator-=(const Foam::lduMatrix&)
    in file matrices/lduMatrix/lduMatrix/lduMatrixOperations.C at line 290
    Unknown matrix type combination
    this : symmetric    A    : empty
   Normalisation factor = 1e-20
DICPCG:  Solving for cellDisplacementx, Initial residual = 0, Final residual = 0, No Iterations 0
   Normalisation factor = 1e-20
DICPCG:  Solving for cellDisplacementy, Initial residual = 0, Final residual = 0, No Iterations 0
   Normalisation factor = 1e-20
DICPCG:  Solving for cellDisplacementz, Initial residual = 0, Final residual = 0, No Iterations 0
   Normalisation factor = 15.3307
smoothSolver:  Solving for alpha.water, Initial residual = 2.42459e-08, Final residual = 5.65559e-16, No Iterations 1
Phase-1 volume fraction = 0.203305  Min(alpha.water) = 0  Max(alpha.water) = 1
MULES: Correcting alpha.water
MULES: Correcting alpha.water
Phase-1 volume fraction = 0.203305  Min(alpha.water) = -1.07764e-81  Max(alpha.water) = 1
--> FOAM Warning : 
    From void Foam::lduMatrix::operator-=(const Foam::lduMatrix&)
    in file matrices/lduMatrix/lduMatrix/lduMatrixOperations.C at line 290
    Unknown matrix type combination
    this : asymmetric    A    : empty
   Normalisation factor = 0.415301
DICPCG:  Solving for p_rgh, Initial residual = 1.50211e-07, Final residual = 1.48099e-09, No Iterations 30
   Normalisation factor = 0.415301
DICPCG:  Solving for p_rgh, Initial residual = 1.48099e-09, Final residual = 9.78933e-10, No Iterations 1
   Normalisation factor = 0.415301
DICPCG:  Solving for p_rgh, Initial residual = 9.78933e-10, Final residual = 9.78933e-10, No Iterations 0
   Normalisation factor = 0.415301
DICPCG:  Solving for p_rgh, Initial residual = 9.78933e-10, Final residual = 9.78933e-10, No Iterations 0
time step continuity errors : sum local = 1.91589e-11, global = -2.31905e-12, cumulative = 3.78616e-12
   Normalisation factor = 0.415301
DICPCG:  Solving for p_rgh, Initial residual = 1.04775e-09, Final residual = 6.89389e-10, No Iterations 1
   Normalisation factor = 0.415301
DICPCG:  Solving for p_rgh, Initial residual = 6.89389e-10, Final residual = 6.89389e-10, No Iterations 0
   Normalisation factor = 0.415301
DICPCG:  Solving for p_rgh, Initial residual = 6.89389e-10, Final residual = 6.89389e-10, No Iterations 0
   Normalisation factor = 0.415301
DICPCG:  Solving for p_rgh, Initial residual = 6.89389e-10, Final residual = 6.89389e-10, No Iterations 0
time step continuity errors : sum local = 1.34922e-11, global = -2.37056e-12, cumulative = 1.4156e-12
   Normalisation factor = 0.415301
DICPCG:  Solving for p_rgh, Initial residual = 6.89253e-10, Final residual = 6.89253e-10, No Iterations 0
   Normalisation factor = 0.415301
DICPCG:  Solving for p_rgh, Initial residual = 6.89253e-10, Final residual = 6.89253e-10, No Iterations 0
   Normalisation factor = 0.415301
DICPCG:  Solving for p_rgh, Initial residual = 6.89253e-10, Final residual = 6.89253e-10, No Iterations 0
   Normalisation factor = 0.415301
DICPCG:  Solving for p_rgh, Initial residual = 6.89253e-10, Final residual = 6.89253e-10, No Iterations 0
time step continuity errors : sum local = 1.34895e-11, global = -2.37058e-12, cumulative = -9.54979e-13
PIMPLE: iteration 4
--> FOAM Warning : 
    From Foam::labelHashSet Foam::polyBoundaryMesh::patchSet(const Foam::UList<Foam::wordRe>&, bool, bool) const
    in file meshes/polyMesh/polyBoundaryMesh/polyBoundaryMesh.C at line 1098
    Cannot find any patch or group names matching paddle
--> FOAM Warning : 
    From Foam::labelHashSet Foam::polyBoundaryMesh::patchSet(const Foam::UList<Foam::wordRe>&, bool, bool) const
    in file meshes/polyMesh/polyBoundaryMesh/polyBoundaryMesh.C at line 1098
    Cannot find any patch or group names matching flumeFloor
--> FOAM Warning : 
    From void Foam::lduMatrix::operator-=(const Foam::lduMatrix&)
    in file matrices/lduMatrix/lduMatrix/lduMatrixOperations.C at line 290
    Unknown matrix type combination
    this : symmetric    A    : empty
   Normalisation factor = 1e-20
DICPCG:  Solving for cellDisplacementx, Initial residual = 0, Final residual = 0, No Iterations 0
   Normalisation factor = 1e-20
DICPCG:  Solving for cellDisplacementy, Initial residual = 0, Final residual = 0, No Iterations 0
   Normalisation factor = 1e-20
DICPCG:  Solving for cellDisplacementz, Initial residual = 0, Final residual = 0, No Iterations 0
   Normalisation factor = 15.3307
smoothSolver:  Solving for alpha.water, Initial residual = 2.55908e-08, Final residual = 7.13164e-16, No Iterations 1
Phase-1 volume fraction = 0.203305  Min(alpha.water) = 0  Max(alpha.water) = 1
MULES: Correcting alpha.water
MULES: Correcting alpha.water
Phase-1 volume fraction = 0.203305  Min(alpha.water) = -1.57982e-81  Max(alpha.water) = 1
